/*---------------------------------------------------------------------------*\
| =========                 |                                                 |
| \\      /  F ield         | OpenFOAM: The Open Source CFD Toolbox           |
|  \\    /   O peration     | Version:  v2012                                 |
|   \\  /    A nd           | Website:  www.openfoam.com                      |
|    \\/     M anipulation  |                                                 |
\*---------------------------------------------------------------------------*/
Build  : _7bdb509494-20201222 OPENFOAM=2012
Arch   : "LSB;label=32;scalar=64"
Exec   : solids4Foam
Date   : Jul 07 2023
Time   : 12:26:58
Host   : DESKTOP-19FOE2K
PID    : 25843
I/O    : uncollated
Case   : /home/federico/OpenFOAM/federico-v2012/run/solid-benchmarks-main/elastoplasticity/plateHole/vertexCentredLinearGeometry/structuredTriangles_ModTangent/vertex.4
nProcs : 1
trapFpe: Floating point exception trapping enabled (FOAM_SIGFPE).
fileModificationChecking : Monitoring run-time modified files using timeStampMaster (fileModificationSkew 5, maxFileModificationPolls 20)
allowSystemOperations : Allowing user-supplied system call operations

// * * * * * * * * * * * * * * * * * * * * * * * * * * * * * * * * * * * * * //
Create time

--> FOAM Warning : 
    From static Foam::IOstreamOption::compressionType Foam::IOstreamOption::compressionEnum(const Foam::word&, Foam::IOstreamOption::compressionType)
    in file db/IOstreams/IOstreams/IOstreamOption.C at line 115
    Unknown compression specifier 'uncompressed', using compression off
/*---------------------------------------------------------------------------*\
|    For further information on the solids4Foam toolbox implementations,      |
|    please see the following publications:                                   |
|                                                                             |
|    P. Cardiff, A Karac, P. De Jaeger, H. Jasak, J. Nagy, A. Ivankovic,      |
|    Z. Tukovic: An open-source finite volume toolbox for solid mechanics and |
|    fluid-solid interaction simulations. arXiv:1808.10736v2, 2018, available |
|    at https://arxiv.org/abs/1808.10736.                                     |
|                                                                             |
|    Z. Tukovic, A. Karac, P. Cardiff, H. Jasak, A. Ivankovic: OpenFOAM       |
|    finite volume solver for fluid-solid interaction.  Transactions of       |
|    Famena, 42 (3), pp. 1-31, 2018, 10.21278/TOF.42301.                      |
\*---------------------------------------------------------------------------*/

Selecting physicsModel solidModel
Selecting solidModel vertexCentredLinearGeometry
Selecting dynamicFvMesh staticFvMesh
    traction is time-varying
    under-relaxation method: fixed
Creating dualMesh
    featureAngle: 30
    doNotPreserveFaceZones: 0
    concaveMultiCells: 0
Constructing dualFaceToCell:
    internal faces not set: 0
    boundary faces not set: 3

Creating the mechanicalModel
Selecting mechanical law linearElasticMisesPlastic
    Plasticity is linear
Creating the dualMechanicalModel
Selecting mechanical law linearElasticMisesPlastic
    Plasticity is linear
fixedDofScale: 3.49844e+09
Creating disp function object
    region = region0
    minDist: 1e-06
SortByCompY called121121
Time = 0.2

Evolving solid solver
    Solving
  0 KSP Residual norm 0.0117697 
  1 KSP Residual norm < 1.e-11
    Initial residual = 0.000138525
    Iter = 0, relRef = 1, res = 0.0117697, resAbs = 0.000138525, nIters = 1, maxD = 0.000101181
    Solving
  0 KSP Residual norm < 1.e-11
    Iter = 1, relRef = 0, res = 0, resAbs = 0, nIters = 0, maxD = 0.000101181
    Converged
    Max DEpsilonPEq is 0
    0 cells (0% of the cells in this material) are actively yielding

ExecutionTime = 6.58 s  ClockTime = 8 s

Time = 0.4

Evolving solid solver
    Solving
  0 KSP Residual norm 0.0117697 
  1 KSP Residual norm < 1.e-11
    Initial residual = 0.000138525
    Iter = 0, relRef = 1, res = 0.0117697, resAbs = 0.000138525, nIters = 1, maxD = 0.000202362
    Solving
  0 KSP Residual norm < 1.e-11
    Iter = 1, relRef = 0, res = 0, resAbs = 0, nIters = 0, maxD = 0.000202362
    Converged
    Max DEpsilonPEq is 0
    0 cells (0% of the cells in this material) are actively yielding

ExecutionTime = 11.2 s  ClockTime = 13 s

Time = 0.6

Evolving solid solver
    Solving
  0 KSP Residual norm 0.0117697 
  1 KSP Residual norm < 1.e-11
    Initial residual = 0.000138525
    Iter = 0, relRef = 1, res = 0.0117697, resAbs = 0.000138525, nIters = 1, maxD = 0.000303543
    Solving
  0 KSP Residual norm < 1.e-11
    Iter = 1, relRef = 0, res = 0, resAbs = 0, nIters = 0, maxD = 0.000303543
    Converged
    Max DEpsilonPEq is 0
    0 cells (0% of the cells in this material) are actively yielding

ExecutionTime = 15.64 s  ClockTime = 18 s

Time = 0.8

Evolving solid solver
    Solving
  0 KSP Residual norm 0.0117697 
  1 KSP Residual norm < 1.e-11
    Initial residual = 0.000138525
    Iter = 0, relRef = 1, res = 0.0117697, resAbs = 0.000138525, nIters = 1, maxD = 0.000404724
    Solving
  0 KSP Residual norm < 1.e-11
    Iter = 1, relRef = 0, res = 0, resAbs = 0, nIters = 0, maxD = 0.000404724
    Converged
    Max DEpsilonPEq is 0
    0 cells (0% of the cells in this material) are actively yielding

ExecutionTime = 20.14 s  ClockTime = 22 s

Time = 1

Evolving solid solver
    Solving
  0 KSP Residual norm 0.0117697 
  1 KSP Residual norm < 1.e-11
    Initial residual = 0.000138525
    Iter = 0, relRef = 1, res = 0.0117697, resAbs = 0.000138525, nIters = 1, maxD = 0.000505904
    Solving
  0 KSP Residual norm < 1.e-11
    Iter = 1, relRef = 0, res = 0, resAbs = 0, nIters = 0, maxD = 0.000505904
    Converged
    Max DEpsilonPEq is 0
    0 cells (0% of the cells in this material) are actively yielding

Max pEpsilonEq = 0.000641514
Max epsilonEq = 0.000641514
Max sigmaEq (von Mises stress) = 5.18146e+07
ExecutionTime = 25.08 s  ClockTime = 28 s

Time = 1.2

Evolving solid solver
    Solving
  0 KSP Residual norm 0.0117697 
  1 KSP Residual norm < 1.e-11
    Initial residual = 0.000138525
    Iter = 0, relRef = 1, res = 0.0117697, resAbs = 0.000138525, nIters = 1, maxD = 0.000607085
    Solving
  0 KSP Residual norm < 1.e-11
    Iter = 1, relRef = 0, res = 0, resAbs = 0, nIters = 0, maxD = 0.000607085
    Converged
    Max DEpsilonPEq is 0
    0 cells (0% of the cells in this material) are actively yielding

ExecutionTime = 29.67 s  ClockTime = 33 s

Time = 1.4

Evolving solid solver
    Solving
  0 KSP Residual norm 0.0117697 
  1 KSP Residual norm < 1.e-11
    Initial residual = 0.000138525
    Iter = 0, relRef = 1, res = 0.0117697, resAbs = 0.000138525, nIters = 1, maxD = 0.000708266
    Solving
  0 KSP Residual norm < 1.e-11
    Iter = 1, relRef = 0, res = 0, resAbs = 0, nIters = 0, maxD = 0.000708266
    Converged
    Max DEpsilonPEq is 0
    0 cells (0% of the cells in this material) are actively yielding

ExecutionTime = 34.23 s  ClockTime = 37 s

Time = 1.6

Evolving solid solver
    Solving
  0 KSP Residual norm 0.0117697 
  1 KSP Residual norm < 1.e-11
    Initial residual = 0.000138525
    Iter = 0, relRef = 1, res = 0.0117697, resAbs = 0.000138525, nIters = 1, maxD = 0.000809447
    Solving
  0 KSP Residual norm < 1.e-11
    Iter = 1, relRef = 0, res = 0, resAbs = 0, nIters = 0, maxD = 0.000809447
    Converged
    Max DEpsilonPEq is 0
    0 cells (0% of the cells in this material) are actively yielding

ExecutionTime = 38.78 s  ClockTime = 42 s

Time = 1.8

Evolving solid solver
    Solving
  0 KSP Residual norm 0.0117697 
  1 KSP Residual norm < 1.e-11
    Initial residual = 0.000138525
    Iter = 0, relRef = 1, res = 0.0117697, resAbs = 0.000138525, nIters = 1, maxD = 0.000910628
    Solving
  0 KSP Residual norm < 1.e-11
    Iter = 1, relRef = 0, res = 0, resAbs = 0, nIters = 0, maxD = 0.000910628
    Converged
    Max DEpsilonPEq is 0
    0 cells (0% of the cells in this material) are actively yielding

ExecutionTime = 43.58 s  ClockTime = 48 s

Time = 2

Evolving solid solver
    Solving
  0 KSP Residual norm 0.0117697 
  1 KSP Residual norm < 1.e-11
    Initial residual = 0.000138525
    Iter = 0, relRef = 1, res = 0.0117697, resAbs = 0.000138525, nIters = 1, maxD = 0.00101181
    Solving
  0 KSP Residual norm < 1.e-11
    Iter = 1, relRef = 0, res = 0, resAbs = 0, nIters = 0, maxD = 0.00101181
    Converged
    Max DEpsilonPEq is 0
    0 cells (0% of the cells in this material) are actively yielding

Max pEpsilonEq = 0.00128303
Max epsilonEq = 0.00128303
Max sigmaEq (von Mises stress) = 1.03629e+08
ExecutionTime = 48.56 s  ClockTime = 53 s

Time = 2.2

Evolving solid solver
    Solving
  0 KSP Residual norm 0.0117697 
  1 KSP Residual norm < 1.e-11
    Initial residual = 0.000138525
    Iter = 0, relRef = 1, res = 0.0117697, resAbs = 0.000138525, nIters = 1, maxD = 0.00111299
    Solving
  0 KSP Residual norm < 1.e-11
    Iter = 1, relRef = 0, res = 0, resAbs = 0, nIters = 0, maxD = 0.00111299
    Converged
    Max DEpsilonPEq is 0
    0 cells (0% of the cells in this material) are actively yielding

ExecutionTime = 53.09 s  ClockTime = 58 s

Time = 2.4

Evolving solid solver
    Solving
  0 KSP Residual norm 0.0117697 
  1 KSP Residual norm < 1.e-11
    Initial residual = 0.000138525
    Iter = 0, relRef = 1, res = 0.0117697, resAbs = 0.000138525, nIters = 1, maxD = 0.00121417
    Solving
  0 KSP Residual norm < 1.e-11
    Iter = 1, relRef = 0, res = 0, resAbs = 0, nIters = 0, maxD = 0.00121417
    Converged
    Max DEpsilonPEq is 0
    0 cells (0% of the cells in this material) are actively yielding

ExecutionTime = 57.67 s  ClockTime = 63 s

Time = 2.6

Evolving solid solver
    Solving
  0 KSP Residual norm 0.0117697 
  1 KSP Residual norm < 1.e-11
    Initial residual = 0.000138525
    Iter = 0, relRef = 1, res = 0.0117697, resAbs = 0.000138525, nIters = 1, maxD = 0.00131535
    Solving
  0 KSP Residual norm < 1.e-11
    Iter = 1, relRef = 0, res = 0, resAbs = 0, nIters = 0, maxD = 0.00131535
    Converged
    Max DEpsilonPEq is 0
    0 cells (0% of the cells in this material) are actively yielding

ExecutionTime = 62.03 s  ClockTime = 68 s

Time = 2.8

Evolving solid solver
    Solving
  0 KSP Residual norm 0.0117697 
  1 KSP Residual norm < 1.e-11
    Initial residual = 0.000138525
    Iter = 0, relRef = 1, res = 0.0117697, resAbs = 0.000138525, nIters = 1, maxD = 0.00141653
    Solving
  0 KSP Residual norm < 1.e-11
    Iter = 1, relRef = 0, res = 0, resAbs = 0, nIters = 0, maxD = 0.00141653
    Converged
    Max DEpsilonPEq is 0
    0 cells (0% of the cells in this material) are actively yielding

ExecutionTime = 66.66 s  ClockTime = 73 s

Time = 3

Evolving solid solver
    Solving
  0 KSP Residual norm 0.0117697 
  1 KSP Residual norm < 1.e-11
    Initial residual = 0.000138525
    Iter = 0, relRef = 1, res = 0.0117697, resAbs = 0.000138525, nIters = 1, maxD = 0.00151771
    Solving
  0 KSP Residual norm < 1.e-11
    Iter = 1, relRef = 0, res = 0, resAbs = 0, nIters = 0, maxD = 0.00151771
    Converged
    Max DEpsilonPEq is 0
    0 cells (0% of the cells in this material) are actively yielding

Max pEpsilonEq = 0.00192454
Max epsilonEq = 0.00192454
Max sigmaEq (von Mises stress) = 1.55444e+08
ExecutionTime = 71.6 s  ClockTime = 78 s

Time = 3.2

Evolving solid solver
    Solving
  0 KSP Residual norm 0.0117697 
  1 KSP Residual norm < 1.e-11
    Initial residual = 0.000138525
    Iter = 0, relRef = 1, res = 0.0117697, resAbs = 0.000138525, nIters = 1, maxD = 0.00161889
    Solving
  0 KSP Residual norm < 1.e-11
    Iter = 1, relRef = 0, res = 0, resAbs = 0, nIters = 0, maxD = 0.00161889
    Converged
    Max DEpsilonPEq is 0
    0 cells (0% of the cells in this material) are actively yielding

ExecutionTime = 76.11 s  ClockTime = 83 s

Time = 3.4

Evolving solid solver
    Solving
  0 KSP Residual norm 0.0117697 
  1 KSP Residual norm < 1.e-11
    Initial residual = 0.000138525
    Iter = 0, relRef = 1, res = 0.0117697, resAbs = 0.000138525, nIters = 1, maxD = 0.00172008
    Solving
  0 KSP Residual norm < 1.e-11
    Iter = 1, relRef = 0, res = 0, resAbs = 0, nIters = 0, maxD = 0.00172008
    Converged
    Max DEpsilonPEq is 0
    0 cells (0% of the cells in this material) are actively yielding

ExecutionTime = 80.42 s  ClockTime = 88 s

Time = 3.6

Evolving solid solver
    Solving
  0 KSP Residual norm 0.0117697 
  1 KSP Residual norm < 1.e-11
    Initial residual = 0.000138525
    Iter = 0, relRef = 1, res = 0.0117697, resAbs = 0.000138525, nIters = 1, maxD = 0.00182126
    Solving
  0 KSP Residual norm < 1.e-11
    Iter = 1, relRef = 0, res = 0, resAbs = 0, nIters = 0, maxD = 0.00182126
    Converged
    Max DEpsilonPEq is 0
    0 cells (0% of the cells in this material) are actively yielding

ExecutionTime = 84.78 s  ClockTime = 93 s

Time = 3.8

Evolving solid solver
    Solving
  0 KSP Residual norm 0.0117697 
  1 KSP Residual norm < 1.e-11
    Initial residual = 0.000138525
    Iter = 0, relRef = 1, res = 0.0117697, resAbs = 0.000138525, nIters = 1, maxD = 0.00192244
    Solving
  0 KSP Residual norm < 1.e-11
    Iter = 1, relRef = 0, res = 0, resAbs = 0, nIters = 0, maxD = 0.00192244
    Converged
    Max DEpsilonPEq is 0
    0 cells (0% of the cells in this material) are actively yielding

ExecutionTime = 89.36 s  ClockTime = 97 s

Time = 4

Evolving solid solver
    Solving
  0 KSP Residual norm 0.0117697 
  1 KSP Residual norm < 1.e-11
    Initial residual = 0.000138525
    Iter = 0, relRef = 1, res = 0.0117697, resAbs = 0.000138525, nIters = 1, maxD = 0.00202362
    Solving
  0 KSP Residual norm < 1.e-11
    Iter = 1, relRef = 0, res = 0, resAbs = 0, nIters = 0, maxD = 0.00202362
    Converged
    Max DEpsilonPEq is 0
    0 cells (0% of the cells in this material) are actively yielding

Max pEpsilonEq = 0.00256606
Max epsilonEq = 0.00256606
Max sigmaEq (von Mises stress) = 2.07258e+08
ExecutionTime = 94.23 s  ClockTime = 103 s

Time = 4.2

Evolving solid solver
    Solving
  0 KSP Residual norm 0.0117697 
  1 KSP Residual norm < 1.e-11
    Initial residual = 0.000138525
    Iter = 0, relRef = 1, res = 0.0117697, resAbs = 0.000138525, nIters = 1, maxD = 0.0021248
    Solving
  0 KSP Residual norm < 1.e-11
    Iter = 1, relRef = 0, res = 0, resAbs = 0, nIters = 0, maxD = 0.0021248
    Converged
    Max DEpsilonPEq is 0
    0 cells (0% of the cells in this material) are actively yielding

ExecutionTime = 98.57 s  ClockTime = 108 s

Time = 4.4

Evolving solid solver
    Solving
  0 KSP Residual norm 0.0117697 
  1 KSP Residual norm < 1.e-11
    Initial residual = 0.000138525
    Iter = 0, relRef = 1, res = 0.0117697, resAbs = 0.000138525, nIters = 1, maxD = 0.00222598
    Solving
  0 KSP Residual norm < 1.e-11
    Iter = 1, relRef = 0, res = 0, resAbs = 0, nIters = 0, maxD = 0.00222598
    Converged
    Max DEpsilonPEq is 0
    0 cells (0% of the cells in this material) are actively yielding

ExecutionTime = 103.19 s  ClockTime = 113 s

Time = 4.6

Evolving solid solver
    Solving
  0 KSP Residual norm 0.0117697 
  1 KSP Residual norm < 1.e-11
    Initial residual = 0.000138525
    Iter = 0, relRef = 1, res = 0.0117697, resAbs = 0.000138525, nIters = 1, maxD = 0.00232716
    Solving
  0 KSP Residual norm < 1.e-11
    Iter = 1, relRef = 0, res = 0, resAbs = 0, nIters = 0, maxD = 0.00232716
    Converged
    Max DEpsilonPEq is 0
    0 cells (0% of the cells in this material) are actively yielding

ExecutionTime = 107.63 s  ClockTime = 117 s

Time = 4.8

Evolving solid solver
    Solving
  0 KSP Residual norm 0.0117697 
  1 KSP Residual norm < 1.e-11
    Initial residual = 0.000138525
    Iter = 0, relRef = 1, res = 0.0117697, resAbs = 0.000138525, nIters = 1, maxD = 0.00242834
    Solving
  0 KSP Residual norm 6.30075e-06 
  1 KSP Residual norm < 1.e-11
    Iter = 1, relRef = 2.86587e-07, res = 6.30075e-06, resAbs = 3.96995e-11, nIters = 1, maxD = 0.00242837
    Solving
  0 KSP Residual norm 1.57304e-07 
  1 KSP Residual norm < 1.e-11
    Iter = 2, relRef = 1.78629e-10, res = 1.57304e-07, resAbs = 2.47446e-14, nIters = 1, maxD = 0.00242837
    Solving
  0 KSP Residual norm 7.273e-10 
  1 KSP Residual norm < 1.e-11
    Iter = 3, relRef = 3.8187e-15, res = 7.27315e-10, resAbs = 5.28987e-19, nIters = 1, maxD = 0.00242837
    Converged
    Max DEpsilonPEq is 0.000121692
    4 cells (0.0125% of the cells in this material) are actively yielding

ExecutionTime = 116.23 s  ClockTime = 127 s

Time = 5

Evolving solid solver
    Solving
  0 KSP Residual norm 0.011779 
  1 KSP Residual norm < 1.e-11
    Initial residual = 0.000138744
    Iter = 0, relRef = 1, res = 0.011779, resAbs = 0.000138744, nIters = 1, maxD = 0.00252961
    Solving
  0 KSP Residual norm 3.94058e-05 
  1 KSP Residual norm < 1.e-11
    Iter = 1, relRef = 1.1192e-05, res = 3.94058e-05, resAbs = 1.55282e-09, nIters = 1, maxD = 0.0025298
    Solving
  0 KSP Residual norm 5.24524e-07 
  1 KSP Residual norm < 1.e-11
    Iter = 2, relRef = 1.98297e-09, res = 5.24524e-07, resAbs = 2.75125e-13, nIters = 1, maxD = 0.0025298
    Solving
  0 KSP Residual norm 1.62575e-07 
  1 KSP Residual norm < 1.e-11
    Iter = 3, relRef = 1.905e-10, res = 1.62575e-07, resAbs = 2.64307e-14, nIters = 1, maxD = 0.0025298
    Solving
  0 KSP Residual norm 9.1707e-09 
  1 KSP Residual norm < 1.e-11
    Iter = 4, relRef = 6.06166e-13, res = 9.1707e-09, resAbs = 8.41017e-17, nIters = 1, maxD = 0.0025298
    Converged
    Max DEpsilonPEq is 0.000213209
    18 cells (0.05625% of the cells in this material) are actively yielding

Max pEpsilonEq = 0.00334346
Max epsilonEq = 0.00334346
Max sigmaEq (von Mises stress) = 2.43e+08
ExecutionTime = 127.83 s  ClockTime = 139 s

Time = 5.2

Evolving solid solver
    Solving
  0 KSP Residual norm 0.0118091 
  1 KSP Residual norm < 1.e-11
    Initial residual = 0.000139456
    Iter = 0, relRef = 1, res = 0.0118091, resAbs = 0.000139456, nIters = 1, maxD = 0.00263121
    Solving
  0 KSP Residual norm 8.21928e-05 
  1 KSP Residual norm < 1.e-11
    Iter = 1, relRef = 4.8443e-05, res = 8.21928e-05, resAbs = 6.75566e-09, nIters = 1, maxD = 0.00263163
    Solving
  0 KSP Residual norm 3.39005e-06 
  1 KSP Residual norm < 1.e-11
    Iter = 2, relRef = 8.24091e-08, res = 3.39005e-06, resAbs = 1.14924e-11, nIters = 1, maxD = 0.00263164
    Solving
  0 KSP Residual norm 5.01928e-07 
  1 KSP Residual norm < 1.e-11
    Iter = 3, relRef = 1.80653e-09, res = 5.01928e-07, resAbs = 2.51931e-13, nIters = 1, maxD = 0.00263164
    Solving
  0 KSP Residual norm 4.04664e-08 
  1 KSP Residual norm < 1.e-11
    Iter = 4, relRef = 1.17423e-11, res = 4.04664e-08, resAbs = 1.63753e-15, nIters = 1, maxD = 0.00263164
    Converged
    Max DEpsilonPEq is 0.000235268
    36 cells (0.1125% of the cells in this material) are actively yielding

ExecutionTime = 138.86 s  ClockTime = 151 s

Time = 5.4

Evolving solid solver
    Solving
  0 KSP Residual norm 0.0118476 
  1 KSP Residual norm < 1.e-11
    Initial residual = 0.000140365
    Iter = 0, relRef = 1, res = 0.0118476, resAbs = 0.000140365, nIters = 1, maxD = 0.00273327
    Solving
  0 KSP Residual norm 0.00013645 
  1 KSP Residual norm < 1.e-11
    Iter = 1, relRef = 0.000132643, res = 0.00013645, resAbs = 1.86185e-08, nIters = 1, maxD = 0.00273397
    Solving
  0 KSP Residual norm 8.65545e-06 
  1 KSP Residual norm < 1.e-11
    Iter = 2, relRef = 5.33726e-07, res = 8.65545e-06, resAbs = 7.49168e-11, nIters = 1, maxD = 0.00273401
    Solving
  0 KSP Residual norm 1.29153e-06 
  1 KSP Residual norm < 1.e-11
    Iter = 3, relRef = 1.18837e-08, res = 1.29153e-06, resAbs = 1.66806e-12, nIters = 1, maxD = 0.00273402
    Solving
  0 KSP Residual norm 7.11498e-08 
  1 KSP Residual norm < 1.e-11
    Iter = 4, relRef = 3.60651e-11, res = 7.11498e-08, resAbs = 5.06229e-15, nIters = 1, maxD = 0.00273402
    Converged
    Max DEpsilonPEq is 0.000248235
    59 cells (0.184375% of the cells in this material) are actively yielding

ExecutionTime = 149.81 s  ClockTime = 162 s

Time = 5.6

Evolving solid solver
    Solving
  0 KSP Residual norm 0.0118934 
  1 KSP Residual norm < 1.e-11
    Initial residual = 0.000141453
    Iter = 0, relRef = 1, res = 0.0118934, resAbs = 0.000141453, nIters = 1, maxD = 0.00283591
    Solving
  0 KSP Residual norm 0.000202624 
  1 KSP Residual norm < 1.e-11
    Iter = 1, relRef = 0.000290248, res = 0.000202624, resAbs = 4.10565e-08, nIters = 1, maxD = 0.00283696
    Solving
  0 KSP Residual norm 1.35052e-05 
  1 KSP Residual norm < 1.e-11
    Iter = 2, relRef = 1.2894e-06, res = 1.35052e-05, resAbs = 1.8239e-10, nIters = 1, maxD = 0.00283703
    Solving
  0 KSP Residual norm 1.88165e-06 
  1 KSP Residual norm < 1.e-11
    Iter = 3, relRef = 2.50304e-08, res = 1.88165e-06, resAbs = 3.54062e-12, nIters = 1, maxD = 0.00283704
    Solving
  0 KSP Residual norm 3.9698e-07 
  1 KSP Residual norm < 1.e-11
    Iter = 4, relRef = 1.1141e-09, res = 3.9698e-07, resAbs = 1.57593e-13, nIters = 1, maxD = 0.00283704
    Solving
  0 KSP Residual norm 7.24347e-08 
  1 KSP Residual norm < 1.e-11
    Iter = 5, relRef = 3.7092e-11, res = 7.24347e-08, resAbs = 5.24678e-15, nIters = 1, maxD = 0.00283704
    Converged
    Max DEpsilonPEq is 0.000262917
    86 cells (0.26875% of the cells in this material) are actively yielding

ExecutionTime = 163.07 s  ClockTime = 176 s

Time = 5.8

Evolving solid solver
    Solving
  0 KSP Residual norm 0.0119463 
  1 KSP Residual norm < 1.e-11
    Initial residual = 0.000142715
    Iter = 0, relRef = 1, res = 0.0119463, resAbs = 0.000142715, nIters = 1, maxD = 0.00293924
    Solving
  0 KSP Residual norm 0.00027139 
  1 KSP Residual norm < 1.e-11
    Iter = 1, relRef = 0.000516081, res = 0.00027139, resAbs = 7.36523e-08, nIters = 1, maxD = 0.00294065
    Solving
  0 KSP Residual norm 2.23203e-05 
  1 KSP Residual norm < 1.e-11
    Iter = 2, relRef = 3.49085e-06, res = 2.23203e-05, resAbs = 4.98195e-10, nIters = 1, maxD = 0.00294076
    Solving
  0 KSP Residual norm 2.9972e-06 
  1 KSP Residual norm < 1.e-11
    Iter = 3, relRef = 6.2945e-08, res = 2.9972e-06, resAbs = 8.98319e-12, nIters = 1, maxD = 0.00294078
    Solving
  0 KSP Residual norm 1.23347e-06 
  1 KSP Residual norm < 1.e-11
    Iter = 4, relRef = 1.06607e-08, res = 1.23347e-06, resAbs = 1.52144e-12, nIters = 1, maxD = 0.00294078
    Solving
  0 KSP Residual norm 3.43293e-07 
  1 KSP Residual norm < 1.e-11
    Iter = 5, relRef = 8.25774e-10, res = 3.43293e-07, resAbs = 1.1785e-13, nIters = 1, maxD = 0.00294078
    Solving
  0 KSP Residual norm 3.20626e-07 
  1 KSP Residual norm < 1.e-11
    Iter = 6, relRef = 7.20326e-10, res = 3.20626e-07, resAbs = 1.02801e-13, nIters = 1, maxD = 0.00294078
    Solving
  0 KSP Residual norm 1.72357e-07 
  1 KSP Residual norm < 1.e-11
    Iter = 7, relRef = 2.08156e-10, res = 1.72357e-07, resAbs = 2.9707e-14, nIters = 1, maxD = 0.00294078
    Solving
  0 KSP Residual norm 1.16043e-07 
  1 KSP Residual norm < 1.e-11
    Iter = 8, relRef = 9.43555e-11, res = 1.16043e-07, resAbs = 1.34659e-14, nIters = 1, maxD = 0.00294078
    Converged
    Max DEpsilonPEq is 0.000275515
    111 cells (0.346875% of the cells in this material) are actively yielding

ExecutionTime = 182.74 s  ClockTime = 197 s

Time = 6

Evolving solid solver
    Solving
  0 KSP Residual norm 0.0119924 
  1 KSP Residual norm < 1.e-11
    Initial residual = 0.000143817
    Iter = 0, relRef = 1, res = 0.0119924, resAbs = 0.000143817, nIters = 1, maxD = 0.00304326
    Solving
  0 KSP Residual norm 0.000360733 
  1 KSP Residual norm < 1.e-11
    Iter = 1, relRef = 0.000904815, res = 0.000360733, resAbs = 1.30128e-07, nIters = 1, maxD = 0.00304514
    Solving
  0 KSP Residual norm 3.11974e-05 
  1 KSP Residual norm < 1.e-11
    Iter = 2, relRef = 6.76747e-06, res = 3.11974e-05, resAbs = 9.73278e-10, nIters = 1, maxD = 0.0030453
    Solving
  0 KSP Residual norm 5.16541e-06 
  1 KSP Residual norm < 1.e-11
    Iter = 3, relRef = 1.85523e-07, res = 5.16541e-06, resAbs = 2.66815e-11, nIters = 1, maxD = 0.00304533
    Solving
  0 KSP Residual norm 2.0454e-06 
  1 KSP Residual norm < 1.e-11
    Iter = 4, relRef = 2.909e-08, res = 2.0454e-06, resAbs = 4.18364e-12, nIters = 1, maxD = 0.00304534
    Solving
  0 KSP Residual norm 5.50269e-07 
  1 KSP Residual norm < 1.e-11
    Iter = 5, relRef = 2.10542e-09, res = 5.50269e-07, resAbs = 3.02796e-13, nIters = 1, maxD = 0.00304534
    Solving
  0 KSP Residual norm 6.13576e-07 
  1 KSP Residual norm < 1.e-11
    Iter = 6, relRef = 2.61774e-09, res = 6.13576e-07, resAbs = 3.76476e-13, nIters = 1, maxD = 0.00304534
    Solving
  0 KSP Residual norm 3.48389e-07 
  1 KSP Residual norm < 1.e-11
    Iter = 7, relRef = 8.43955e-10, res = 3.48389e-07, resAbs = 1.21375e-13, nIters = 1, maxD = 0.00304534
    Solving
  0 KSP Residual norm 2.61501e-07 
  1 KSP Residual norm < 1.e-11
    Iter = 8, relRef = 4.75485e-10, res = 2.61501e-07, resAbs = 6.83829e-14, nIters = 1, maxD = 0.00304534
    Solving
  0 KSP Residual norm 1.70179e-07 
  1 KSP Residual norm < 1.e-11
    Iter = 9, relRef = 2.01373e-10, res = 1.70179e-07, resAbs = 2.8961e-14, nIters = 1, maxD = 0.00304534
    Solving
  0 KSP Residual norm 1.19718e-07 
  1 KSP Residual norm < 1.e-11
    Iter = 10, relRef = 9.96572e-11, res = 1.19718e-07, resAbs = 1.43324e-14, nIters = 1, maxD = 0.00304534
    Converged
    Max DEpsilonPEq is 0.000286134
    140 cells (0.4375% of the cells in this material) are actively yielding

Max pEpsilonEq = 0.00461964
Max epsilonEq = 0.00461964
Max sigmaEq (von Mises stress) = 2.43e+08
ExecutionTime = 206.53 s  ClockTime = 222 s

Time = 6.2

Evolving solid solver
    Solving
  0 KSP Residual norm 0.0120431 
  1 KSP Residual norm < 1.e-11
    Initial residual = 0.000145037
    Iter = 0, relRef = 1, res = 0.0120431, resAbs = 0.000145037, nIters = 1, maxD = 0.00314811
    Solving
  0 KSP Residual norm 0.00045327 
  1 KSP Residual norm < 1.e-11
    Iter = 1, relRef = 0.00141656, res = 0.00045327, resAbs = 2.05453e-07, nIters = 1, maxD = 0.00315049
    Solving
  0 KSP Residual norm 4.62001e-05 
  1 KSP Residual norm < 1.e-11
    Iter = 2, relRef = 1.47166e-05, res = 4.62001e-05, resAbs = 2.13445e-09, nIters = 1, maxD = 0.00315074
    Solving
  0 KSP Residual norm 7.80095e-06 
  1 KSP Residual norm < 1.e-11
    Iter = 3, relRef = 4.19581e-07, res = 7.80095e-06, resAbs = 6.08547e-11, nIters = 1, maxD = 0.00315078
    Solving
  0 KSP Residual norm 3.27221e-06 
  1 KSP Residual norm < 1.e-11
    Iter = 4, relRef = 7.3825e-08, res = 3.27221e-06, resAbs = 1.07074e-11, nIters = 1, maxD = 0.0031508
    Solving
  0 KSP Residual norm 8.38781e-07 
  1 KSP Residual norm < 1.e-11
    Iter = 5, relRef = 4.85086e-09, res = 8.38781e-07, resAbs = 7.03554e-13, nIters = 1, maxD = 0.00315079
    Solving
  0 KSP Residual norm 1.03801e-06 
  1 KSP Residual norm < 1.e-11
    Iter = 6, relRef = 7.42891e-09, res = 1.03801e-06, resAbs = 1.07747e-12, nIters = 1, maxD = 0.0031508
    Solving
  0 KSP Residual norm 5.96215e-07 
  1 KSP Residual norm < 1.e-11
    Iter = 7, relRef = 2.45091e-09, res = 5.96215e-07, resAbs = 3.55472e-13, nIters = 1, maxD = 0.0031508
    Solving
  0 KSP Residual norm 4.82884e-07 
  1 KSP Residual norm < 1.e-11
    Iter = 8, relRef = 1.60771e-09, res = 4.82884e-07, resAbs = 2.33177e-13, nIters = 1, maxD = 0.0031508
    Solving
  0 KSP Residual norm 3.2553e-07 
  1 KSP Residual norm < 1.e-11
    Iter = 9, relRef = 7.30641e-10, res = 3.2553e-07, resAbs = 1.0597e-13, nIters = 1, maxD = 0.0031508
    Solving
  0 KSP Residual norm 2.43594e-07 
  1 KSP Residual norm < 1.e-11
    Iter = 10, relRef = 4.09125e-10, res = 2.43594e-07, resAbs = 5.93382e-14, nIters = 1, maxD = 0.0031508
    Solving
  0 KSP Residual norm 1.72073e-07 
  1 KSP Residual norm < 1.e-11
    Iter = 11, relRef = 2.04148e-10, res = 1.72073e-07, resAbs = 2.9609e-14, nIters = 1, maxD = 0.0031508
    Solving
  0 KSP Residual norm 1.26525e-07 
  1 KSP Residual norm < 1.e-11
    Iter = 12, relRef = 1.10376e-10, res = 1.26525e-07, resAbs = 1.60086e-14, nIters = 1, maxD = 0.0031508
    Solving
  0 KSP Residual norm 9.11023e-08 
  1 KSP Residual norm < 1.e-11
    Iter = 13, relRef = 5.72242e-11, res = 9.11023e-08, resAbs = 8.29963e-15, nIters = 1, maxD = 0.0031508
    Converged
    Max DEpsilonPEq is 0.000299436
    169 cells (0.528125% of the cells in this material) are actively yielding

ExecutionTime = 237.18 s  ClockTime = 254 s

Time = 6.4

Evolving solid solver
    Solving
  0 KSP Residual norm 0.0120914 
  1 KSP Residual norm < 1.e-11
    Initial residual = 0.000146202
    Iter = 0, relRef = 1, res = 0.0120914, resAbs = 0.000146202, nIters = 1, maxD = 0.00325385
    Solving
  0 KSP Residual norm 0.000558317 
  1 KSP Residual norm < 1.e-11
    Iter = 1, relRef = 0.0021321, res = 0.000558317, resAbs = 3.11718e-07, nIters = 1, maxD = 0.0032568
    Solving
  0 KSP Residual norm 6.40506e-05 
  1 KSP Residual norm < 1.e-11
    Iter = 2, relRef = 2.80603e-05, res = 6.40506e-05, resAbs = 4.10248e-09, nIters = 1, maxD = 0.00325715
    Solving
  0 KSP Residual norm 1.21152e-05 
  1 KSP Residual norm < 1.e-11
    Iter = 3, relRef = 1.00394e-06, res = 1.21152e-05, resAbs = 1.46779e-10, nIters = 1, maxD = 0.00325721
    Solving
  0 KSP Residual norm 4.58562e-06 
  1 KSP Residual norm < 1.e-11
    Iter = 4, relRef = 1.43827e-07, res = 4.58562e-06, resAbs = 2.10279e-11, nIters = 1, maxD = 0.00325723
    Solving
  0 KSP Residual norm 9.31641e-07 
  1 KSP Residual norm < 1.e-11
    Iter = 5, relRef = 5.93666e-09, res = 9.31641e-07, resAbs = 8.67954e-13, nIters = 1, maxD = 0.00325723
    Solving
  0 KSP Residual norm 1.37535e-06 
  1 KSP Residual norm < 1.e-11
    Iter = 6, relRef = 1.29382e-08, res = 1.37535e-06, resAbs = 1.8916e-12, nIters = 1, maxD = 0.00325724
    Solving
  0 KSP Residual norm 7.38305e-07 
  1 KSP Residual norm < 1.e-11
    Iter = 7, relRef = 3.72835e-09, res = 7.38305e-07, resAbs = 5.45094e-13, nIters = 1, maxD = 0.00325724
    Solving
  0 KSP Residual norm 6.49142e-07 
  1 KSP Residual norm < 1.e-11
    Iter = 8, relRef = 2.8822e-09, res = 6.49142e-07, resAbs = 4.21385e-13, nIters = 1, maxD = 0.00325724
    Solving
  0 KSP Residual norm 4.32424e-07 
  1 KSP Residual norm < 1.e-11
    Iter = 9, relRef = 1.27898e-09, res = 4.32424e-07, resAbs = 1.8699e-13, nIters = 1, maxD = 0.00325724
    Solving
  0 KSP Residual norm 3.39772e-07 
  1 KSP Residual norm < 1.e-11
    Iter = 10, relRef = 7.89627e-10, res = 3.39772e-07, resAbs = 1.15445e-13, nIters = 1, maxD = 0.00325724
    Solving
  0 KSP Residual norm 2.41726e-07 
  1 KSP Residual norm < 1.e-11
    Iter = 11, relRef = 3.99662e-10, res = 2.41726e-07, resAbs = 5.84316e-14, nIters = 1, maxD = 0.00325724
    Solving
  0 KSP Residual norm 1.84358e-07 
  1 KSP Residual norm < 1.e-11
    Iter = 12, relRef = 2.32472e-10, res = 1.84358e-07, resAbs = 3.3988e-14, nIters = 1, maxD = 0.00325724
    Solving
  0 KSP Residual norm 1.34839e-07 
  1 KSP Residual norm < 1.e-11
    Iter = 13, relRef = 1.24359e-10, res = 1.34839e-07, resAbs = 1.81816e-14, nIters = 1, maxD = 0.00325724
    Solving
  0 KSP Residual norm 1.01975e-07 
  1 KSP Residual norm < 1.e-11
    Iter = 14, relRef = 7.11261e-11, res = 1.01975e-07, resAbs = 1.03988e-14, nIters = 1, maxD = 0.00325724
    Converged
    Max DEpsilonPEq is 0.000311284
    201 cells (0.628125% of the cells in this material) are actively yielding

ExecutionTime = 269.61 s  ClockTime = 288 s

Time = 6.6

Evolving solid solver
    Solving
  0 KSP Residual norm 0.0121438 
  1 KSP Residual norm < 1.e-11
    Initial residual = 0.000147472
    Iter = 0, relRef = 1, res = 0.0121438, resAbs = 0.000147472, nIters = 1, maxD = 0.0033606
    Solving
  0 KSP Residual norm 0.000671906 
  1 KSP Residual norm < 1.e-11
    Iter = 1, relRef = 0.0030613, res = 0.000671906, resAbs = 4.51458e-07, nIters = 1, maxD = 0.00336417
    Solving
  0 KSP Residual norm 7.61811e-05 
  1 KSP Residual norm < 1.e-11
    Iter = 2, relRef = 3.93536e-05, res = 7.61811e-05, resAbs = 5.80356e-09, nIters = 1, maxD = 0.00336458
    Solving
  0 KSP Residual norm 1.8407e-05 
  1 KSP Residual norm < 1.e-11
    Iter = 3, relRef = 2.2975e-06, res = 1.8407e-05, resAbs = 3.38818e-10, nIters = 1, maxD = 0.00336468
    Solving
  0 KSP Residual norm 6.11989e-06 
  1 KSP Residual norm < 1.e-11
    Iter = 4, relRef = 2.53966e-07, res = 6.11989e-06, resAbs = 3.7453e-11, nIters = 1, maxD = 0.00336471
    Solving
  0 KSP Residual norm 1.11802e-06 
  1 KSP Residual norm < 1.e-11
    Iter = 5, relRef = 8.47592e-09, res = 1.11802e-06, resAbs = 1.24996e-12, nIters = 1, maxD = 0.00336471
    Solving
  0 KSP Residual norm 1.78596e-06 
  1 KSP Residual norm < 1.e-11
    Iter = 6, relRef = 2.16289e-08, res = 1.78596e-06, resAbs = 3.18966e-12, nIters = 1, maxD = 0.00336472
    Solving
  0 KSP Residual norm 8.50587e-07 
  1 KSP Residual norm < 1.e-11
    Iter = 7, relRef = 4.906e-09, res = 8.50587e-07, resAbs = 7.23499e-13, nIters = 1, maxD = 0.00336472
    Solving
  0 KSP Residual norm 8.51298e-07 
  1 KSP Residual norm < 1.e-11
    Iter = 8, relRef = 4.9142e-09, res = 8.51298e-07, resAbs = 7.24708e-13, nIters = 1, maxD = 0.00336472
    Solving
  0 KSP Residual norm 5.51624e-07 
  1 KSP Residual norm < 1.e-11
    Iter = 9, relRef = 2.06336e-09, res = 5.51624e-07, resAbs = 3.04289e-13, nIters = 1, maxD = 0.00336472
    Solving
  0 KSP Residual norm 4.6177e-07 
  1 KSP Residual norm < 1.e-11
    Iter = 10, relRef = 1.44591e-09, res = 4.6177e-07, resAbs = 2.13232e-13, nIters = 1, maxD = 0.00336472
    Solving
  0 KSP Residual norm 3.30397e-07 
  1 KSP Residual norm < 1.e-11
    Iter = 11, relRef = 7.40223e-10, res = 3.30397e-07, resAbs = 1.09162e-13, nIters = 1, maxD = 0.00336472
    Solving
  0 KSP Residual norm 2.62106e-07 
  1 KSP Residual norm < 1.e-11
    Iter = 12, relRef = 4.65847e-10, res = 2.62106e-07, resAbs = 6.86996e-14, nIters = 1, maxD = 0.00336472
    Solving
  0 KSP Residual norm 1.95134e-07 
  1 KSP Residual norm < 1.e-11
    Iter = 13, relRef = 2.582e-10, res = 1.95134e-07, resAbs = 3.80773e-14, nIters = 1, maxD = 0.00336472
    Solving
  0 KSP Residual norm 1.52108e-07 
  1 KSP Residual norm < 1.e-11
    Iter = 14, relRef = 1.5689e-10, res = 1.52108e-07, resAbs = 2.3137e-14, nIters = 1, maxD = 0.00336472
    Solving
  0 KSP Residual norm 1.15373e-07 
  1 KSP Residual norm < 1.e-11
    Iter = 15, relRef = 9.02605e-11, res = 1.15373e-07, resAbs = 1.33109e-14, nIters = 1, maxD = 0.00336472
    Converged
    Max DEpsilonPEq is 0.000324253
    232 cells (0.725% of the cells in this material) are actively yielding

ExecutionTime = 303.03 s  ClockTime = 325 s

Time = 6.8

Evolving solid solver
    Solving
  0 KSP Residual norm 0.0121926 
  1 KSP Residual norm < 1.e-11
    Initial residual = 0.000148659
    Iter = 0, relRef = 1, res = 0.0121926, resAbs = 0.000148659, nIters = 1, maxD = 0.00346838
    Solving
  0 KSP Residual norm 0.000792466 
  1 KSP Residual norm < 1.e-11
    Iter = 1, relRef = 0.00422445, res = 0.000792466, resAbs = 6.28003e-07, nIters = 1, maxD = 0.00347261
    Solving
  0 KSP Residual norm 9.74735e-05 
  1 KSP Residual norm < 1.e-11
    Iter = 2, relRef = 6.39118e-05, res = 9.74735e-05, resAbs = 9.50108e-09, nIters = 1, maxD = 0.00347314
    Solving
  0 KSP Residual norm 2.72886e-05 
  1 KSP Residual norm < 1.e-11
    Iter = 3, relRef = 5.00921e-06, res = 2.72886e-05, resAbs = 7.44665e-10, nIters = 1, maxD = 0.00347329
    Solving
  0 KSP Residual norm 8.27867e-06 
  1 KSP Residual norm < 1.e-11
    Iter = 4, relRef = 4.6103e-07, res = 8.27867e-06, resAbs = 6.85364e-11, nIters = 1, maxD = 0.00347333
    Solving
  0 KSP Residual norm 1.57224e-06 
  1 KSP Residual norm < 1.e-11
    Iter = 5, relRef = 1.66282e-08, res = 1.57224e-06, resAbs = 2.47194e-12, nIters = 1, maxD = 0.00347333
    Solving
  0 KSP Residual norm 2.17441e-06 
  1 KSP Residual norm < 1.e-11
    Iter = 6, relRef = 3.18047e-08, res = 2.17441e-06, resAbs = 4.72807e-12, nIters = 1, maxD = 0.00347334
    Solving
  0 KSP Residual norm 8.4742e-07 
  1 KSP Residual norm < 1.e-11
    Iter = 7, relRef = 4.83065e-09, res = 8.4742e-07, resAbs = 7.18121e-13, nIters = 1, maxD = 0.00347334
    Solving
  0 KSP Residual norm 9.67068e-07 
  1 KSP Residual norm < 1.e-11
    Iter = 8, relRef = 6.29104e-09, res = 9.67068e-07, resAbs = 9.35221e-13, nIters = 1, maxD = 0.00347335
    Solving
  0 KSP Residual norm 5.83579e-07 
  1 KSP Residual norm < 1.e-11
    Iter = 9, relRef = 2.29091e-09, res = 5.83579e-07, resAbs = 3.40565e-13, nIters = 1, maxD = 0.00347334
    Solving
  0 KSP Residual norm 5.19919e-07 
  1 KSP Residual norm < 1.e-11
    Iter = 10, relRef = 1.81836e-09, res = 5.19919e-07, resAbs = 2.70316e-13, nIters = 1, maxD = 0.00347335
    Solving
  0 KSP Residual norm 3.6102e-07 
  1 KSP Residual norm < 1.e-11
    Iter = 11, relRef = 8.76739e-10, res = 3.6102e-07, resAbs = 1.30335e-13, nIters = 1, maxD = 0.00347334
    Solving
  0 KSP Residual norm 2.98271e-07 
  1 KSP Residual norm < 1.e-11
    Iter = 12, relRef = 5.98453e-10, res = 2.98271e-07, resAbs = 8.89655e-14, nIters = 1, maxD = 0.00347335
    Solving
  0 KSP Residual norm 2.19384e-07 
  1 KSP Residual norm < 1.e-11
    Iter = 13, relRef = 3.23756e-10, res = 2.19384e-07, resAbs = 4.81293e-14, nIters = 1, maxD = 0.00347334
    Solving
  0 KSP Residual norm 1.76436e-07 
  1 KSP Residual norm < 1.e-11
    Iter = 14, relRef = 2.09402e-10, res = 1.76436e-07, resAbs = 3.11296e-14, nIters = 1, maxD = 0.00347335
    Solving
  0 KSP Residual norm 1.33546e-07 
  1 KSP Residual norm < 1.e-11
    Iter = 15, relRef = 1.1997e-10, res = 1.33546e-07, resAbs = 1.78347e-14, nIters = 1, maxD = 0.00347335
    Solving
  0 KSP Residual norm 1.06269e-07 
  1 KSP Residual norm < 1.e-11
    Iter = 16, relRef = 7.59666e-11, res = 1.06269e-07, resAbs = 1.12931e-14, nIters = 1, maxD = 0.00347335
    Converged
    Max DEpsilonPEq is 0.000335189
    268 cells (0.8375% of the cells in this material) are actively yielding

ExecutionTime = 338.67 s  ClockTime = 363 s

Time = 7

Evolving solid solver
    Solving
  0 KSP Residual norm 0.0122459 
  1 KSP Residual norm < 1.e-11
    Initial residual = 0.000149962
    Iter = 0, relRef = 1, res = 0.0122459, resAbs = 0.000149962, nIters = 1, maxD = 0.00357732
    Solving
  0 KSP Residual norm 0.000912574 
  1 KSP Residual norm < 1.e-11
    Iter = 1, relRef = 0.00555334, res = 0.000912574, resAbs = 8.32792e-07, nIters = 1, maxD = 0.00358221
    Solving
  0 KSP Residual norm 0.000126462 
  1 KSP Residual norm < 1.e-11
    Iter = 2, relRef = 0.000106645, res = 0.000126462, resAbs = 1.59928e-08, nIters = 1, maxD = 0.0035829
    Solving
  0 KSP Residual norm 3.5238e-05 
  1 KSP Residual norm < 1.e-11
    Iter = 3, relRef = 8.28016e-06, res = 3.5238e-05, resAbs = 1.24171e-09, nIters = 1, maxD = 0.00358309
    Solving
  0 KSP Residual norm 1.14467e-05 
  1 KSP Residual norm < 1.e-11
    Iter = 4, relRef = 8.73732e-07, res = 1.14467e-05, resAbs = 1.31027e-10, nIters = 1, maxD = 0.00358315
    Solving
  0 KSP Residual norm 2.60521e-06 
  1 KSP Residual norm < 1.e-11
    Iter = 5, relRef = 4.52587e-08, res = 2.60521e-06, resAbs = 6.78711e-12, nIters = 1, maxD = 0.00358317
    Solving
  0 KSP Residual norm 2.67037e-06 
  1 KSP Residual norm < 1.e-11
    Iter = 6, relRef = 4.75511e-08, res = 2.67037e-06, resAbs = 7.13089e-12, nIters = 1, maxD = 0.00358318
    Solving
  0 KSP Residual norm 7.01908e-07 
  1 KSP Residual norm < 1.e-11
    Iter = 7, relRef = 3.28532e-09, res = 7.01908e-07, resAbs = 4.92675e-13, nIters = 1, maxD = 0.00358318
    Solving
  0 KSP Residual norm 1.14005e-06 
  1 KSP Residual norm < 1.e-11
    Iter = 8, relRef = 8.66697e-09, res = 1.14005e-06, resAbs = 1.29972e-12, nIters = 1, maxD = 0.00358318
    Solving
  0 KSP Residual norm 5.50551e-07 
  1 KSP Residual norm < 1.e-11
    Iter = 9, relRef = 2.02122e-09, res = 5.50551e-07, resAbs = 3.03106e-13, nIters = 1, maxD = 0.00358318
    Solving
  0 KSP Residual norm 6.04075e-07 
  1 KSP Residual norm < 1.e-11
    Iter = 10, relRef = 2.43332e-09, res = 6.04075e-07, resAbs = 3.64906e-13, nIters = 1, maxD = 0.00358318
    Solving
  0 KSP Residual norm 3.79417e-07 
  1 KSP Residual norm < 1.e-11
    Iter = 11, relRef = 9.59953e-10, res = 3.79417e-07, resAbs = 1.43957e-13, nIters = 1, maxD = 0.00358318
    Solving
  0 KSP Residual norm 3.5144e-07 
  1 KSP Residual norm < 1.e-11
    Iter = 12, relRef = 8.23607e-10, res = 3.5144e-07, resAbs = 1.2351e-13, nIters = 1, maxD = 0.00358318
    Solving
  0 KSP Residual norm 2.47908e-07 
  1 KSP Residual norm < 1.e-11
    Iter = 13, relRef = 4.09825e-10, res = 2.47908e-07, resAbs = 6.14583e-14, nIters = 1, maxD = 0.00358318
    Solving
  0 KSP Residual norm 2.13551e-07 
  1 KSP Residual norm < 1.e-11
    Iter = 14, relRef = 3.04103e-10, res = 2.13551e-07, resAbs = 4.56041e-14, nIters = 1, maxD = 0.00358318
    Solving
  0 KSP Residual norm 1.59461e-07 
  1 KSP Residual norm < 1.e-11
    Iter = 15, relRef = 1.69561e-10, res = 1.59461e-07, resAbs = 2.54279e-14, nIters = 1, maxD = 0.00358318
    Solving
  0 KSP Residual norm 1.32841e-07 
  1 KSP Residual norm < 1.e-11
    Iter = 16, relRef = 1.17675e-10, res = 1.32841e-07, resAbs = 1.76468e-14, nIters = 1, maxD = 0.00358318
    Solving
  0 KSP Residual norm 1.02253e-07 
  1 KSP Residual norm < 1.e-11
    Iter = 17, relRef = 6.97223e-11, res = 1.02253e-07, resAbs = 1.04557e-14, nIters = 1, maxD = 0.00358318
    Converged
    Max DEpsilonPEq is 0.000346078
    302 cells (0.94375% of the cells in this material) are actively yielding

Max pEpsilonEq = 0.00623242
Max epsilonEq = 0.00623242
Max sigmaEq (von Mises stress) = 2.43e+08
ExecutionTime = 376.76 s  ClockTime = 405 s

Time = 7.2

Evolving solid solver
    Solving
  0 KSP Residual norm 0.0122925 
  1 KSP Residual norm < 1.e-11
    Initial residual = 0.000151105
    Iter = 0, relRef = 1, res = 0.0122925, resAbs = 0.000151105, nIters = 1, maxD = 0.00368744
    Solving
  0 KSP Residual norm 0.00105215 
  1 KSP Residual norm < 1.e-11
    Iter = 1, relRef = 0.00732618, res = 0.00105215, resAbs = 1.10702e-06, nIters = 1, maxD = 0.0036931
    Solving
  0 KSP Residual norm 0.000155034 
  1 KSP Residual norm < 1.e-11
    Iter = 2, relRef = 0.000159066, res = 0.000155034, resAbs = 2.40356e-08, nIters = 1, maxD = 0.00369395
    Solving
  0 KSP Residual norm 4.74399e-05 
  1 KSP Residual norm < 1.e-11
    Iter = 3, relRef = 1.4894e-05, res = 4.74399e-05, resAbs = 2.25055e-09, nIters = 1, maxD = 0.00369421
    Solving
  0 KSP Residual norm 1.35637e-05 
  1 KSP Residual norm < 1.e-11
    Iter = 4, relRef = 1.21752e-06, res = 1.35637e-05, resAbs = 1.83973e-10, nIters = 1, maxD = 0.00369428
    Solving
  0 KSP Residual norm 4.45222e-06 
  1 KSP Residual norm < 1.e-11
    Iter = 5, relRef = 1.31182e-07, res = 4.45222e-06, resAbs = 1.98222e-11, nIters = 1, maxD = 0.00369431
    Solving
  0 KSP Residual norm 2.90866e-06 
  1 KSP Residual norm < 1.e-11
    Iter = 6, relRef = 5.59897e-08, res = 2.90866e-06, resAbs = 8.46029e-12, nIters = 1, maxD = 0.00369432
    Solving
  0 KSP Residual norm 7.15692e-07 
  1 KSP Residual norm < 1.e-11
    Iter = 7, relRef = 3.3898e-09, res = 7.15692e-07, resAbs = 5.12215e-13, nIters = 1, maxD = 0.00369432
    Solving
  0 KSP Residual norm 1.1824e-06 
  1 KSP Residual norm < 1.e-11
    Iter = 8, relRef = 9.25237e-09, res = 1.1824e-06, resAbs = 1.39808e-12, nIters = 1, maxD = 0.00369433
    Solving
  0 KSP Residual norm 5.08272e-07 
  1 KSP Residual norm < 1.e-11
    Iter = 9, relRef = 1.70968e-09, res = 5.08272e-07, resAbs = 2.5834e-13, nIters = 1, maxD = 0.00369433
    Solving
  0 KSP Residual norm 6.41794e-07 
  1 KSP Residual norm < 1.e-11
    Iter = 10, relRef = 2.72593e-09, res = 6.41794e-07, resAbs = 4.119e-13, nIters = 1, maxD = 0.00369433
    Solving
  0 KSP Residual norm 3.77925e-07 
  1 KSP Residual norm < 1.e-11
    Iter = 11, relRef = 9.45223e-10, res = 3.77925e-07, resAbs = 1.42828e-13, nIters = 1, maxD = 0.00369433
    Solving
  0 KSP Residual norm 3.83474e-07 
  1 KSP Residual norm < 1.e-11
    Iter = 12, relRef = 9.73183e-10, res = 3.83474e-07, resAbs = 1.47052e-13, nIters = 1, maxD = 0.00369433
    Solving
  0 KSP Residual norm 2.61378e-07 
  1 KSP Residual norm < 1.e-11
    Iter = 13, relRef = 4.52127e-10, res = 2.61378e-07, resAbs = 6.83185e-14, nIters = 1, maxD = 0.00369433
    Solving
  0 KSP Residual norm 2.40169e-07 
  1 KSP Residual norm < 1.e-11
    Iter = 14, relRef = 3.8173e-10, res = 2.40169e-07, resAbs = 5.76812e-14, nIters = 1, maxD = 0.00369433
    Solving
  0 KSP Residual norm 1.75893e-07 
  1 KSP Residual norm < 1.e-11
    Iter = 15, relRef = 2.04748e-10, res = 1.75893e-07, resAbs = 3.09384e-14, nIters = 1, maxD = 0.00369433
    Solving
  0 KSP Residual norm 1.53839e-07 
  1 KSP Residual norm < 1.e-11
    Iter = 16, relRef = 1.56624e-10, res = 1.53839e-07, resAbs = 2.36666e-14, nIters = 1, maxD = 0.00369433
    Solving
  0 KSP Residual norm 1.17309e-07 
  1 KSP Residual norm < 1.e-11
    Iter = 17, relRef = 9.10722e-11, res = 1.17309e-07, resAbs = 1.37614e-14, nIters = 1, maxD = 0.00369433
    Converged
    Max DEpsilonPEq is 0.00035664
    336 cells (1.05% of the cells in this material) are actively yielding

ExecutionTime = 414.27 s  ClockTime = 445 s

Time = 7.4

Evolving solid solver
    Solving
  0 KSP Residual norm 0.0123408 
  1 KSP Residual norm < 1.e-11
    Initial residual = 0.000152296
    Iter = 0, relRef = 1, res = 0.0123408, resAbs = 0.000152296, nIters = 1, maxD = 0.00379887
    Solving
  0 KSP Residual norm 0.0011899 
  1 KSP Residual norm < 1.e-11
    Iter = 1, relRef = 0.00929684, res = 0.0011899, resAbs = 1.41587e-06, nIters = 1, maxD = 0.0038053
    Solving
  0 KSP Residual norm 0.000193521 
  1 KSP Residual norm < 1.e-11
    Iter = 2, relRef = 0.000245905, res = 0.000193521, resAbs = 3.74504e-08, nIters = 1, maxD = 0.00380637
    Solving
  0 KSP Residual norm 6.09883e-05 
  1 KSP Residual norm < 1.e-11
    Iter = 3, relRef = 2.44233e-05, res = 6.09883e-05, resAbs = 3.71957e-09, nIters = 1, maxD = 0.00380671
    Solving
  0 KSP Residual norm 1.8565e-05 
  1 KSP Residual norm < 1.e-11
    Iter = 4, relRef = 2.2631e-06, res = 1.8565e-05, resAbs = 3.44661e-10, nIters = 1, maxD = 0.00380681
    Solving
  0 KSP Residual norm 6.31299e-06 
  1 KSP Residual norm < 1.e-11
    Iter = 5, relRef = 2.61687e-07, res = 6.31299e-06, resAbs = 3.98539e-11, nIters = 1, maxD = 0.00380684
    Solving
  0 KSP Residual norm 4.2603e-06 
  1 KSP Residual norm < 1.e-11
    Iter = 6, relRef = 1.19177e-07, res = 4.2603e-06, resAbs = 1.81502e-11, nIters = 1, maxD = 0.00380686
    Solving
  0 KSP Residual norm 1.05517e-06 
  1 KSP Residual norm < 1.e-11
    Iter = 7, relRef = 7.3106e-09, res = 1.05517e-06, resAbs = 1.11338e-12, nIters = 1, maxD = 0.00380686
    Solving
  0 KSP Residual norm 1.62795e-06 
  1 KSP Residual norm < 1.e-11
    Iter = 8, relRef = 1.74017e-08, res = 1.62795e-06, resAbs = 2.65021e-12, nIters = 1, maxD = 0.00380687
    Solving
  0 KSP Residual norm 5.48284e-07 
  1 KSP Residual norm < 1.e-11
    Iter = 9, relRef = 1.97389e-09, res = 5.48284e-07, resAbs = 3.00615e-13, nIters = 1, maxD = 0.00380687
    Solving
  0 KSP Residual norm 8.33031e-07 
  1 KSP Residual norm < 1.e-11
    Iter = 10, relRef = 4.55652e-09, res = 8.33031e-07, resAbs = 6.9394e-13, nIters = 1, maxD = 0.00380688
    Solving
  0 KSP Residual norm 4.27271e-07 
  1 KSP Residual norm < 1.e-11
    Iter = 11, relRef = 1.19872e-09, res = 4.27271e-07, resAbs = 1.8256e-13, nIters = 1, maxD = 0.00380687
    Solving
  0 KSP Residual norm 4.88335e-07 
  1 KSP Residual norm < 1.e-11
    Iter = 12, relRef = 1.56584e-09, res = 4.88335e-07, resAbs = 2.38471e-13, nIters = 1, maxD = 0.00380688
    Solving
  0 KSP Residual norm 3.11362e-07 
  1 KSP Residual norm < 1.e-11
    Iter = 13, relRef = 6.36564e-10, res = 3.11362e-07, resAbs = 9.69463e-14, nIters = 1, maxD = 0.00380687
    Solving
  0 KSP Residual norm 3.0757e-07 
  1 KSP Residual norm < 1.e-11
    Iter = 14, relRef = 6.21155e-10, res = 3.0757e-07, resAbs = 9.45995e-14, nIters = 1, maxD = 0.00380688
    Solving
  0 KSP Residual norm 2.18452e-07 
  1 KSP Residual norm < 1.e-11
    Iter = 15, relRef = 3.13345e-10, res = 2.18452e-07, resAbs = 4.77213e-14, nIters = 1, maxD = 0.00380688
    Solving
  0 KSP Residual norm 2.00773e-07 
  1 KSP Residual norm < 1.e-11
    Iter = 16, relRef = 2.64679e-10, res = 2.00773e-07, resAbs = 4.03096e-14, nIters = 1, maxD = 0.00380688
    Solving
  0 KSP Residual norm 1.51144e-07 
  1 KSP Residual norm < 1.e-11
    Iter = 17, relRef = 1.50001e-10, res = 1.51144e-07, resAbs = 2.28446e-14, nIters = 1, maxD = 0.00380688
    Solving
  0 KSP Residual norm 1.33648e-07 
  1 KSP Residual norm < 1.e-11
    Iter = 18, relRef = 1.17283e-10, res = 1.33648e-07, resAbs = 1.78618e-14, nIters = 1, maxD = 0.00380688
    Solving
  0 KSP Residual norm 1.04101e-07 
  1 KSP Residual norm < 1.e-11
    Iter = 19, relRef = 7.1158e-11, res = 1.04101e-07, resAbs = 1.08371e-14, nIters = 1, maxD = 0.00380688
    Converged
    Max DEpsilonPEq is 0.000372233
    372 cells (1.1625% of the cells in this material) are actively yielding

ExecutionTime = 455.77 s  ClockTime = 491 s

Time = 7.6

Evolving solid solver
    Solving
  0 KSP Residual norm 0.0123859 
  1 KSP Residual norm < 1.e-11
    Initial residual = 0.000153411
    Iter = 0, relRef = 1, res = 0.0123859, resAbs = 0.000153411, nIters = 1, maxD = 0.00391169
    Solving
  0 KSP Residual norm 0.00135055 
  1 KSP Residual norm < 1.e-11
    Iter = 1, relRef = 0.0118895, res = 0.00135055, resAbs = 1.82398e-06, nIters = 1, maxD = 0.00391901
    Solving
  0 KSP Residual norm 0.000217858 
  1 KSP Residual norm < 1.e-11
    Iter = 2, relRef = 0.000309379, res = 0.000217858, resAbs = 4.74621e-08, nIters = 1, maxD = 0.00392022
    Solving
  0 KSP Residual norm 7.81583e-05 
  1 KSP Residual norm < 1.e-11
    Iter = 3, relRef = 3.98193e-05, res = 7.81583e-05, resAbs = 6.10872e-09, nIters = 1, maxD = 0.00392065
    Solving
  0 KSP Residual norm 2.29611e-05 
  1 KSP Residual norm < 1.e-11
    Iter = 4, relRef = 3.43659e-06, res = 2.29611e-05, resAbs = 5.27211e-10, nIters = 1, maxD = 0.00392078
    Solving
  0 KSP Residual norm 9.40349e-06 
  1 KSP Residual norm < 1.e-11
    Iter = 5, relRef = 5.76398e-07, res = 9.40349e-06, resAbs = 8.84257e-11, nIters = 1, maxD = 0.00392083
    Solving
  0 KSP Residual norm 4.64778e-06 
  1 KSP Residual norm < 1.e-11
    Iter = 6, relRef = 1.40811e-07, res = 4.64778e-06, resAbs = 2.16019e-11, nIters = 1, maxD = 0.00392086
    Solving
  0 KSP Residual norm 1.65489e-06 
  1 KSP Residual norm < 1.e-11
    Iter = 7, relRef = 1.78517e-08, res = 1.65489e-06, resAbs = 2.73864e-12, nIters = 1, maxD = 0.00392087
    Solving
  0 KSP Residual norm 1.64506e-06 
  1 KSP Residual norm < 1.e-11
    Iter = 8, relRef = 1.76404e-08, res = 1.64506e-06, resAbs = 2.70623e-12, nIters = 1, maxD = 0.00392087
    Solving
  0 KSP Residual norm 5.12072e-07 
  1 KSP Residual norm < 1.e-11
    Iter = 9, relRef = 1.70925e-09, res = 5.12072e-07, resAbs = 2.62218e-13, nIters = 1, maxD = 0.00392087
    Solving
  0 KSP Residual norm 8.26941e-07 
  1 KSP Residual norm < 1.e-11
    Iter = 10, relRef = 4.45751e-09, res = 8.26941e-07, resAbs = 6.83831e-13, nIters = 1, maxD = 0.00392088
    Solving
  0 KSP Residual norm 3.55459e-07 
  1 KSP Residual norm < 1.e-11
    Iter = 11, relRef = 8.23613e-10, res = 3.55459e-07, resAbs = 1.26351e-13, nIters = 1, maxD = 0.00392088
    Solving
  0 KSP Residual norm 4.88144e-07 
  1 KSP Residual norm < 1.e-11
    Iter = 12, relRef = 1.55324e-09, res = 4.88144e-07, resAbs = 2.38284e-13, nIters = 1, maxD = 0.00392088
    Solving
  0 KSP Residual norm 2.73047e-07 
  1 KSP Residual norm < 1.e-11
    Iter = 13, relRef = 4.85979e-10, res = 2.73047e-07, resAbs = 7.45545e-14, nIters = 1, maxD = 0.00392088
    Solving
  0 KSP Residual norm 3.11121e-07 
  1 KSP Residual norm < 1.e-11
    Iter = 14, relRef = 6.30962e-10, res = 3.11121e-07, resAbs = 9.67965e-14, nIters = 1, maxD = 0.00392088
    Solving
  0 KSP Residual norm 2.02508e-07 
  1 KSP Residual norm < 1.e-11
    Iter = 15, relRef = 2.67319e-10, res = 2.02508e-07, resAbs = 4.10096e-14, nIters = 1, maxD = 0.00392088
    Solving
  0 KSP Residual norm 2.06311e-07 
  1 KSP Residual norm < 1.e-11
    Iter = 16, relRef = 2.77453e-10, res = 2.06311e-07, resAbs = 4.25643e-14, nIters = 1, maxD = 0.00392088
    Solving
  0 KSP Residual norm 1.46851e-07 
  1 KSP Residual norm < 1.e-11
    Iter = 17, relRef = 1.40572e-10, res = 1.46851e-07, resAbs = 2.15652e-14, nIters = 1, maxD = 0.00392088
    Solving
  0 KSP Residual norm 1.39936e-07 
  1 KSP Residual norm < 1.e-11
    Iter = 18, relRef = 1.27645e-10, res = 1.39936e-07, resAbs = 1.95821e-14, nIters = 1, maxD = 0.00392088
    Solving
  0 KSP Residual norm 1.05278e-07 
  1 KSP Residual norm < 1.e-11
    Iter = 19, relRef = 7.22473e-11, res = 1.05278e-07, resAbs = 1.10835e-14, nIters = 1, maxD = 0.00392088
    Converged
    Max DEpsilonPEq is 0.000383811
    408 cells (1.275% of the cells in this material) are actively yielding

ExecutionTime = 497.27 s  ClockTime = 536 s

Time = 7.8

Evolving solid solver
    Solving
  0 KSP Residual norm 0.01243 
  1 KSP Residual norm < 1.e-11
    Initial residual = 0.000154505
    Iter = 0, relRef = 1, res = 0.01243, resAbs = 0.000154505, nIters = 1, maxD = 0.00402596
    Solving
  0 KSP Residual norm 0.00150331 
  1 KSP Residual norm < 1.e-11
    Iter = 1, relRef = 0.0146269, res = 0.00150331, resAbs = 2.25993e-06, nIters = 1, maxD = 0.00403413
    Solving
  0 KSP Residual norm 0.00026864 
  1 KSP Residual norm < 1.e-11
    Iter = 2, relRef = 0.000467088, res = 0.00026864, resAbs = 7.21675e-08, nIters = 1, maxD = 0.00403563
    Solving
  0 KSP Residual norm 9.92279e-05 
  1 KSP Residual norm < 1.e-11
    Iter = 3, relRef = 6.37272e-05, res = 9.92279e-05, resAbs = 9.84618e-09, nIters = 1, maxD = 0.00403618
    Solving
  0 KSP Residual norm 3.18735e-05 
  1 KSP Residual norm < 1.e-11
    Iter = 4, relRef = 6.57534e-06, res = 3.18735e-05, resAbs = 1.01592e-09, nIters = 1, maxD = 0.00403636
    Solving
  0 KSP Residual norm 1.34748e-05 
  1 KSP Residual norm < 1.e-11
    Iter = 5, relRef = 1.17518e-06, res = 1.34748e-05, resAbs = 1.81571e-10, nIters = 1, maxD = 0.00403643
    Solving
  0 KSP Residual norm 6.51757e-06 
  1 KSP Residual norm < 1.e-11
    Iter = 6, relRef = 2.74934e-07, res = 6.51757e-06, resAbs = 4.24787e-11, nIters = 1, maxD = 0.00403647
    Solving
  0 KSP Residual norm 2.58027e-06 
  1 KSP Residual norm < 1.e-11
    Iter = 7, relRef = 4.30912e-08, res = 2.58027e-06, resAbs = 6.65781e-12, nIters = 1, maxD = 0.00403648
    Solving
  0 KSP Residual norm 2.12848e-06 
  1 KSP Residual norm < 1.e-11
    Iter = 8, relRef = 2.93223e-08, res = 2.12848e-06, resAbs = 4.53044e-12, nIters = 1, maxD = 0.00403649
    Solving
  0 KSP Residual norm 7.0077e-07 
  1 KSP Residual norm < 1.e-11
    Iter = 9, relRef = 3.1784e-09, res = 7.0077e-07, resAbs = 4.91079e-13, nIters = 1, maxD = 0.0040365
    Solving
  0 KSP Residual norm 9.82955e-07 
  1 KSP Residual norm < 1.e-11
    Iter = 10, relRef = 6.25352e-09, res = 9.82955e-07, resAbs = 9.662e-13, nIters = 1, maxD = 0.0040365
    Solving
  0 KSP Residual norm 3.7867e-07 
  1 KSP Residual norm < 1.e-11
    Iter = 11, relRef = 9.28064e-10, res = 3.7867e-07, resAbs = 1.43391e-13, nIters = 1, maxD = 0.0040365
    Solving
  0 KSP Residual norm 5.54578e-07 
  1 KSP Residual norm < 1.e-11
    Iter = 12, relRef = 1.9906e-09, res = 5.54578e-07, resAbs = 3.07557e-13, nIters = 1, maxD = 0.0040365
    Solving
  0 KSP Residual norm 2.80312e-07 
  1 KSP Residual norm < 1.e-11
    Iter = 13, relRef = 5.0856e-10, res = 2.80312e-07, resAbs = 7.85751e-14, nIters = 1, maxD = 0.0040365
    Solving
  0 KSP Residual norm 3.46818e-07 
  1 KSP Residual norm < 1.e-11
    Iter = 14, relRef = 7.78503e-10, res = 3.46818e-07, resAbs = 1.20283e-13, nIters = 1, maxD = 0.0040365
    Solving
  0 KSP Residual norm 2.09901e-07 
  1 KSP Residual norm < 1.e-11
    Iter = 15, relRef = 2.85158e-10, res = 2.09901e-07, resAbs = 4.40583e-14, nIters = 1, maxD = 0.0040365
    Solving
  0 KSP Residual norm 2.28903e-07 
  1 KSP Residual norm < 1.e-11
    Iter = 16, relRef = 3.39125e-10, res = 2.28903e-07, resAbs = 5.23966e-14, nIters = 1, maxD = 0.0040365
    Solving
  0 KSP Residual norm 1.5472e-07 
  1 KSP Residual norm < 1.e-11
    Iter = 17, relRef = 1.54934e-10, res = 1.5472e-07, resAbs = 2.39382e-14, nIters = 1, maxD = 0.0040365
    Solving
  0 KSP Residual norm 1.55749e-07 
  1 KSP Residual norm < 1.e-11
    Iter = 18, relRef = 1.57002e-10, res = 1.55749e-07, resAbs = 2.42577e-14, nIters = 1, maxD = 0.0040365
    Solving
  0 KSP Residual norm 1.12917e-07 
  1 KSP Residual norm < 1.e-11
    Iter = 19, relRef = 8.25232e-11, res = 1.12917e-07, resAbs = 1.27502e-14, nIters = 1, maxD = 0.0040365
    Converged
    Max DEpsilonPEq is 0.000400269
    449 cells (1.40312% of the cells in this material) are actively yielding

ExecutionTime = 539.07 s  ClockTime = 581 s

Time = 8

Evolving solid solver
    Solving
  0 KSP Residual norm 0.0124791 
  1 KSP Residual norm < 1.e-11
    Initial residual = 0.000155727
    Iter = 0, relRef = 1, res = 0.0124791, resAbs = 0.000155727, nIters = 1, maxD = 0.00414188
    Solving
  0 KSP Residual norm 0.00167025 
  1 KSP Residual norm < 1.e-11
    Iter = 1, relRef = 0.0179142, res = 0.00167025, resAbs = 2.78973e-06, nIters = 1, maxD = 0.00415099
    Solving
  0 KSP Residual norm 0.000306792 
  1 KSP Residual norm < 1.e-11
    Iter = 2, relRef = 0.000604398, res = 0.000306792, resAbs = 9.41211e-08, nIters = 1, maxD = 0.00415271
    Solving
  0 KSP Residual norm 0.000120982 
  1 KSP Residual norm < 1.e-11
    Iter = 3, relRef = 9.39895e-05, res = 0.000120982, resAbs = 1.46367e-08, nIters = 1, maxD = 0.00415338
    Solving
  0 KSP Residual norm 3.85581e-05 
  1 KSP Residual norm < 1.e-11
    Iter = 4, relRef = 9.54699e-06, res = 3.85581e-05, resAbs = 1.48672e-09, nIters = 1, maxD = 0.0041536
    Solving
  0 KSP Residual norm 1.80401e-05 
  1 KSP Residual norm < 1.e-11
    Iter = 5, relRef = 2.08985e-06, res = 1.80401e-05, resAbs = 3.25446e-10, nIters = 1, maxD = 0.0041537
    Solving
  0 KSP Residual norm 7.99865e-06 
  1 KSP Residual norm < 1.e-11
    Iter = 6, relRef = 4.10837e-07, res = 7.99865e-06, resAbs = 6.39784e-11, nIters = 1, maxD = 0.00415374
    Solving
  0 KSP Residual norm 4.01288e-06 
  1 KSP Residual norm < 1.e-11
    Iter = 7, relRef = 1.03407e-07, res = 4.01288e-06, resAbs = 1.61032e-11, nIters = 1, maxD = 0.00415376
    Solving
  0 KSP Residual norm 2.55962e-06 
  1 KSP Residual norm < 1.e-11
    Iter = 8, relRef = 4.20714e-08, res = 2.55962e-06, resAbs = 6.55165e-12, nIters = 1, maxD = 0.00415378
    Solving
  0 KSP Residual norm 1.12581e-06 
  1 KSP Residual norm < 1.e-11
    Iter = 9, relRef = 8.13894e-09, res = 1.12581e-06, resAbs = 1.26745e-12, nIters = 1, maxD = 0.00415378
    Solving
  0 KSP Residual norm 1.14072e-06 
  1 KSP Residual norm < 1.e-11
    Iter = 10, relRef = 8.35585e-09, res = 1.14072e-06, resAbs = 1.30123e-12, nIters = 1, maxD = 0.00415379
    Solving
  0 KSP Residual norm 4.37587e-07 
  1 KSP Residual norm < 1.e-11
    Iter = 11, relRef = 1.2296e-09, res = 4.37587e-07, resAbs = 1.91482e-13, nIters = 1, maxD = 0.00415379
    Solving
  0 KSP Residual norm 6.37549e-07 
  1 KSP Residual norm < 1.e-11
    Iter = 12, relRef = 2.61014e-09, res = 6.37549e-07, resAbs = 4.06469e-13, nIters = 1, maxD = 0.00415379
    Solving
  0 KSP Residual norm 2.6662e-07 
  1 KSP Residual norm < 1.e-11
    Iter = 13, relRef = 4.56481e-10, res = 2.6662e-07, resAbs = 7.10864e-14, nIters = 1, maxD = 0.00415379
    Solving
  0 KSP Residual norm 3.89146e-07 
  1 KSP Residual norm < 1.e-11
    Iter = 14, relRef = 9.72434e-10, res = 3.89146e-07, resAbs = 1.51434e-13, nIters = 1, maxD = 0.00415379
    Solving
  0 KSP Residual norm 2.01525e-07 
  1 KSP Residual norm < 1.e-11
    Iter = 15, relRef = 2.60793e-10, res = 2.01525e-07, resAbs = 4.06125e-14, nIters = 1, maxD = 0.00415379
    Solving
  0 KSP Residual norm 2.56432e-07 
  1 KSP Residual norm < 1.e-11
    Iter = 16, relRef = 4.22259e-10, res = 2.56432e-07, resAbs = 6.57572e-14, nIters = 1, maxD = 0.00415379
    Solving
  0 KSP Residual norm 1.56699e-07 
  1 KSP Residual norm < 1.e-11
    Iter = 17, relRef = 1.57677e-10, res = 1.56699e-07, resAbs = 2.45546e-14, nIters = 1, maxD = 0.00415379
    Solving
  0 KSP Residual norm 1.76877e-07 
  1 KSP Residual norm < 1.e-11
    Iter = 18, relRef = 2.00899e-10, res = 1.76877e-07, resAbs = 3.12854e-14, nIters = 1, maxD = 0.00415379
    Solving
  0 KSP Residual norm 1.20498e-07 
  1 KSP Residual norm < 1.e-11
    Iter = 19, relRef = 9.3239e-11, res = 1.20498e-07, resAbs = 1.45198e-14, nIters = 1, maxD = 0.00415379
    Converged
    Max DEpsilonPEq is 0.000414899
    493 cells (1.54062% of the cells in this material) are actively yielding

Max pEpsilonEq = 0.00810858
Max epsilonEq = 0.00810858
Max sigmaEq (von Mises stress) = 2.43e+08
ExecutionTime = 576.56 s  ClockTime = 628 s

Time = 8.2

Evolving solid solver
    Solving
  0 KSP Residual norm 0.0125271 
  1 KSP Residual norm < 1.e-11
    Initial residual = 0.000156927
    Iter = 0, relRef = 1, res = 0.0125271, resAbs = 0.000156927, nIters = 1, maxD = 0.00425946
    Solving
  0 KSP Residual norm 0.00183834 
  1 KSP Residual norm < 1.e-11
    Iter = 1, relRef = 0.0215355, res = 0.00183834, resAbs = 3.37951e-06, nIters = 1, maxD = 0.00426952
    Solving
  0 KSP Residual norm 0.000362903 
  1 KSP Residual norm < 1.e-11
    Iter = 2, relRef = 0.000839233, res = 0.000362903, resAbs = 1.31698e-07, nIters = 1, maxD = 0.00427155
    Solving
  0 KSP Residual norm 0.000148679 
  1 KSP Residual norm < 1.e-11
    Iter = 3, relRef = 0.000140864, res = 0.000148679, resAbs = 2.21054e-08, nIters = 1, maxD = 0.00427239
    Solving
  0 KSP Residual norm 4.9637e-05 
  1 KSP Residual norm < 1.e-11
    Iter = 4, relRef = 1.57005e-05, res = 4.9637e-05, resAbs = 2.46383e-09, nIters = 1, maxD = 0.00427267
    Solving
  0 KSP Residual norm 2.35545e-05 
  1 KSP Residual norm < 1.e-11
    Iter = 5, relRef = 3.53549e-06, res = 2.35545e-05, resAbs = 5.54814e-10, nIters = 1, maxD = 0.0042728
    Solving
  0 KSP Residual norm 1.06566e-05 
  1 KSP Residual norm < 1.e-11
    Iter = 6, relRef = 7.2367e-07, res = 1.06566e-05, resAbs = 1.13563e-10, nIters = 1, maxD = 0.00427286
    Solving
  0 KSP Residual norm 5.4458e-06 
  1 KSP Residual norm < 1.e-11
    Iter = 7, relRef = 1.88984e-07, res = 5.4458e-06, resAbs = 2.96567e-11, nIters = 1, maxD = 0.00427289
    Solving
  0 KSP Residual norm 3.28687e-06 
  1 KSP Residual norm < 1.e-11
    Iter = 8, relRef = 6.88441e-08, res = 3.28687e-06, resAbs = 1.08035e-11, nIters = 1, maxD = 0.00427291
    Solving
  0 KSP Residual norm 1.56743e-06 
  1 KSP Residual norm < 1.e-11
    Iter = 9, relRef = 1.56558e-08, res = 1.56743e-06, resAbs = 2.45683e-12, nIters = 1, maxD = 0.00427291
    Solving
  0 KSP Residual norm 1.38602e-06 
  1 KSP Residual norm < 1.e-11
    Iter = 10, relRef = 1.22417e-08, res = 1.38602e-06, resAbs = 1.92106e-12, nIters = 1, maxD = 0.00427292
    Solving
  0 KSP Residual norm 5.79448e-07 
  1 KSP Residual norm < 1.e-11
    Iter = 11, relRef = 2.13959e-09, res = 5.79448e-07, resAbs = 3.3576e-13, nIters = 1, maxD = 0.00427292
    Solving
  0 KSP Residual norm 7.33392e-07 
  1 KSP Residual norm < 1.e-11
    Iter = 12, relRef = 3.42747e-09, res = 7.33392e-07, resAbs = 5.37864e-13, nIters = 1, maxD = 0.00427293
    Solving
  0 KSP Residual norm 3.15005e-07 
  1 KSP Residual norm < 1.e-11
    Iter = 13, relRef = 6.32319e-10, res = 3.15005e-07, resAbs = 9.92281e-14, nIters = 1, maxD = 0.00427293
    Solving
  0 KSP Residual norm 4.46008e-07 
  1 KSP Residual norm < 1.e-11
    Iter = 14, relRef = 1.26761e-09, res = 4.46008e-07, resAbs = 1.98923e-13, nIters = 1, maxD = 0.00427293
    Solving
  0 KSP Residual norm 2.24066e-07 
  1 KSP Residual norm < 1.e-11
    Iter = 15, relRef = 3.1993e-10, res = 2.24066e-07, resAbs = 5.02056e-14, nIters = 1, maxD = 0.00427293
    Solving
  0 KSP Residual norm 2.93738e-07 
  1 KSP Residual norm < 1.e-11
    Iter = 16, relRef = 5.49821e-10, res = 2.93738e-07, resAbs = 8.62818e-14, nIters = 1, maxD = 0.00427293
    Solving
  0 KSP Residual norm 1.71352e-07 
  1 KSP Residual norm < 1.e-11
    Iter = 17, relRef = 1.87104e-10, res = 1.71352e-07, resAbs = 2.93616e-14, nIters = 1, maxD = 0.00427293
    Solving
  0 KSP Residual norm 2.02637e-07 
  1 KSP Residual norm < 1.e-11
    Iter = 18, relRef = 2.61661e-10, res = 2.02637e-07, resAbs = 4.10617e-14, nIters = 1, maxD = 0.00427293
    Solving
  0 KSP Residual norm 1.31976e-07 
  1 KSP Residual norm < 1.e-11
    Iter = 19, relRef = 1.10993e-10, res = 1.31976e-07, resAbs = 1.74178e-14, nIters = 1, maxD = 0.00427293
    Solving
  0 KSP Residual norm 1.43802e-07 
  1 KSP Residual norm < 1.e-11
    Iter = 20, relRef = 1.31774e-10, res = 1.43802e-07, resAbs = 2.06789e-14, nIters = 1, maxD = 0.00427293
    Solving
  0 KSP Residual norm 1.01213e-07 
  1 KSP Residual norm < 1.e-11
    Iter = 21, relRef = 6.52791e-11, res = 1.01213e-07, resAbs = 1.02441e-14, nIters = 1, maxD = 0.00427293
    Converged
    Max DEpsilonPEq is 0.000428593
    537 cells (1.67813% of the cells in this material) are actively yielding

ExecutionTime = 624.58 s  ClockTime = 680 s

Time = 8.4

Evolving solid solver
    Solving
  0 KSP Residual norm 0.0125744 
  1 KSP Residual norm < 1.e-11
    Initial residual = 0.000158114
    Iter = 0, relRef = 1, res = 0.0125744, resAbs = 0.000158114, nIters = 1, maxD = 0.00437888
    Solving
  0 KSP Residual norm 0.00201933 
  1 KSP Residual norm < 1.e-11
    Iter = 1, relRef = 0.0257895, res = 0.00201933, resAbs = 4.07769e-06, nIters = 1, maxD = 0.00438996
    Solving
  0 KSP Residual norm 0.000413129 
  1 KSP Residual norm < 1.e-11
    Iter = 2, relRef = 0.00107944, res = 0.000413129, resAbs = 1.70675e-07, nIters = 1, maxD = 0.00439229
    Solving
  0 KSP Residual norm 0.000181263 
  1 KSP Residual norm < 1.e-11
    Iter = 3, relRef = 0.0002078, res = 0.000181263, resAbs = 3.28561e-08, nIters = 1, maxD = 0.0043933
    Solving
  0 KSP Residual norm 6.35129e-05 
  1 KSP Residual norm < 1.e-11
    Iter = 4, relRef = 2.55125e-05, res = 6.35129e-05, resAbs = 4.03389e-09, nIters = 1, maxD = 0.00439366
    Solving
  0 KSP Residual norm 3.10451e-05 
  1 KSP Residual norm < 1.e-11
    Iter = 5, relRef = 6.0956e-06, res = 3.10451e-05, resAbs = 9.63801e-10, nIters = 1, maxD = 0.00439384
    Solving
  0 KSP Residual norm 1.39259e-05 
  1 KSP Residual norm < 1.e-11
    Iter = 6, relRef = 1.22653e-06, res = 1.39259e-05, resAbs = 1.93932e-10, nIters = 1, maxD = 0.00439392
    Solving
  0 KSP Residual norm 7.60706e-06 
  1 KSP Residual norm < 1.e-11
    Iter = 7, relRef = 3.65984e-07, res = 7.60706e-06, resAbs = 5.78674e-11, nIters = 1, maxD = 0.00439396
    Solving
  0 KSP Residual norm 4.21493e-06 
  1 KSP Residual norm < 1.e-11
    Iter = 8, relRef = 1.1236e-07, res = 4.21493e-06, resAbs = 1.77657e-11, nIters = 1, maxD = 0.00439398
    Solving
  0 KSP Residual norm 2.33283e-06 
  1 KSP Residual norm < 1.e-11
    Iter = 9, relRef = 3.44188e-08, res = 2.33283e-06, resAbs = 5.44211e-12, nIters = 1, maxD = 0.00439399
    Solving
  0 KSP Residual norm 1.67231e-06 
  1 KSP Residual norm < 1.e-11
    Iter = 10, relRef = 1.76873e-08, res = 1.67231e-06, resAbs = 2.79662e-12, nIters = 1, maxD = 0.004394
    Solving
  0 KSP Residual norm 8.54829e-07 
  1 KSP Residual norm < 1.e-11
    Iter = 11, relRef = 4.62155e-09, res = 8.54829e-07, resAbs = 7.30733e-13, nIters = 1, maxD = 0.00439401
    Solving
  0 KSP Residual norm 8.27149e-07 
  1 KSP Residual norm < 1.e-11
    Iter = 12, relRef = 4.32709e-09, res = 8.27149e-07, resAbs = 6.84176e-13, nIters = 1, maxD = 0.00439401
    Solving
  0 KSP Residual norm 3.97405e-07 
  1 KSP Residual norm < 1.e-11
    Iter = 13, relRef = 9.98838e-10, res = 3.97405e-07, resAbs = 1.57931e-13, nIters = 1, maxD = 0.00439401
    Solving
  0 KSP Residual norm 4.81007e-07 
  1 KSP Residual norm < 1.e-11
    Iter = 14, relRef = 1.46329e-09, res = 4.81007e-07, resAbs = 2.31367e-13, nIters = 1, maxD = 0.00439401
    Solving
  0 KSP Residual norm 2.40875e-07 
  1 KSP Residual norm < 1.e-11
    Iter = 15, relRef = 3.66954e-10, res = 2.40875e-07, resAbs = 5.80207e-14, nIters = 1, maxD = 0.00439401
    Solving
  0 KSP Residual norm 3.09101e-07 
  1 KSP Residual norm < 1.e-11
    Iter = 16, relRef = 6.04269e-10, res = 3.09101e-07, resAbs = 9.55435e-14, nIters = 1, maxD = 0.00439401
    Solving
  0 KSP Residual norm 1.71399e-07 
  1 KSP Residual norm < 1.e-11
    Iter = 17, relRef = 1.85801e-10, res = 1.71399e-07, resAbs = 2.93778e-14, nIters = 1, maxD = 0.00439401
    Solving
  0 KSP Residual norm 2.11493e-07 
  1 KSP Residual norm < 1.e-11
    Iter = 18, relRef = 2.82891e-10, res = 2.11493e-07, resAbs = 4.47291e-14, nIters = 1, maxD = 0.00439402
    Solving
  0 KSP Residual norm 1.29536e-07 
  1 KSP Residual norm < 1.e-11
    Iter = 19, relRef = 1.06123e-10, res = 1.29536e-07, resAbs = 1.67795e-14, nIters = 1, maxD = 0.00439402
    Solving
  0 KSP Residual norm 1.49587e-07 
  1 KSP Residual norm < 1.e-11
    Iter = 20, relRef = 1.41519e-10, res = 1.49587e-07, resAbs = 2.23762e-14, nIters = 1, maxD = 0.00439402
    Solving
  0 KSP Residual norm 9.95987e-08 
  1 KSP Residual norm < 1.e-11
    Iter = 21, relRef = 6.27388e-11, res = 9.95987e-08, resAbs = 9.91991e-15, nIters = 1, maxD = 0.00439402
    Converged
    Max DEpsilonPEq is 0.000445199
    590 cells (1.84375% of the cells in this material) are actively yielding

ExecutionTime = 672.4 s  ClockTime = 732 s

Time = 8.6

Evolving solid solver
    Solving
  0 KSP Residual norm 0.0126293 
  1 KSP Residual norm < 1.e-11
    Initial residual = 0.0001595
    Iter = 0, relRef = 1, res = 0.0126293, resAbs = 0.0001595, nIters = 1, maxD = 0.0045003
    Solving
  0 KSP Residual norm 0.00221434 
  1 KSP Residual norm < 1.e-11
    Iter = 1, relRef = 0.0307418, res = 0.00221434, resAbs = 4.9033e-06, nIters = 1, maxD = 0.00451247
    Solving
  0 KSP Residual norm 0.000475629 
  1 KSP Residual norm < 1.e-11
    Iter = 2, relRef = 0.00141833, res = 0.000475629, resAbs = 2.26223e-07, nIters = 1, maxD = 0.00451516
    Solving
  0 KSP Residual norm 0.000208778 
  1 KSP Residual norm < 1.e-11
    Iter = 3, relRef = 0.000273281, res = 0.000208778, resAbs = 4.35881e-08, nIters = 1, maxD = 0.00451634
    Solving
  0 KSP Residual norm 7.49512e-05 
  1 KSP Residual norm < 1.e-11
    Iter = 4, relRef = 3.52207e-05, res = 7.49512e-05, resAbs = 5.61768e-09, nIters = 1, maxD = 0.00451677
    Solving
  0 KSP Residual norm 3.80076e-05 
  1 KSP Residual norm < 1.e-11
    Iter = 5, relRef = 9.05694e-06, res = 3.80076e-05, resAbs = 1.44458e-09, nIters = 1, maxD = 0.00451698
    Solving
  0 KSP Residual norm 1.73179e-05 
  1 KSP Residual norm < 1.e-11
    Iter = 6, relRef = 1.88031e-06, res = 1.73179e-05, resAbs = 2.99909e-10, nIters = 1, maxD = 0.00451708
    Solving
  0 KSP Residual norm 1.02087e-05 
  1 KSP Residual norm < 1.e-11
    Iter = 7, relRef = 6.534e-07, res = 1.02087e-05, resAbs = 1.04217e-10, nIters = 1, maxD = 0.00451714
    Solving
  0 KSP Residual norm 5.39698e-06 
  1 KSP Residual norm < 1.e-11
    Iter = 8, relRef = 1.82618e-07, res = 5.39698e-06, resAbs = 2.91274e-11, nIters = 1, maxD = 0.00451717
    Solving
  0 KSP Residual norm 3.26608e-06 
  1 KSP Residual norm < 1.e-11
    Iter = 9, relRef = 6.68795e-08, res = 3.26608e-06, resAbs = 1.06673e-11, nIters = 1, maxD = 0.00451719
    Solving
  0 KSP Residual norm 2.06707e-06 
  1 KSP Residual norm < 1.e-11
    Iter = 10, relRef = 2.67885e-08, res = 2.06707e-06, resAbs = 4.27276e-12, nIters = 1, maxD = 0.0045172
    Solving
  0 KSP Residual norm 1.21959e-06 
  1 KSP Residual norm < 1.e-11
    Iter = 11, relRef = 9.32542e-09, res = 1.21959e-06, resAbs = 1.4874e-12, nIters = 1, maxD = 0.0045172
    Solving
  0 KSP Residual norm 9.74577e-07 
  1 KSP Residual norm < 1.e-11
    Iter = 12, relRef = 5.95487e-09, res = 9.74577e-07, resAbs = 9.498e-13, nIters = 1, maxD = 0.00451721
    Solving
  0 KSP Residual norm 5.39141e-07 
  1 KSP Residual norm < 1.e-11
    Iter = 13, relRef = 1.82241e-09, res = 5.39141e-07, resAbs = 2.90673e-13, nIters = 1, maxD = 0.00451721
    Solving
  0 KSP Residual norm 5.41986e-07 
  1 KSP Residual norm < 1.e-11
    Iter = 14, relRef = 1.84169e-09, res = 5.41986e-07, resAbs = 2.93749e-13, nIters = 1, maxD = 0.00451721
    Solving
  0 KSP Residual norm 2.90608e-07 
  1 KSP Residual norm < 1.e-11
    Iter = 15, relRef = 5.29487e-10, res = 2.90608e-07, resAbs = 8.4453e-14, nIters = 1, maxD = 0.00451721
    Solving
  0 KSP Residual norm 3.37372e-07 
  1 KSP Residual norm < 1.e-11
    Iter = 16, relRef = 7.13604e-10, res = 3.37372e-07, resAbs = 1.1382e-13, nIters = 1, maxD = 0.00451721
    Solving
  0 KSP Residual norm 1.87053e-07 
  1 KSP Residual norm < 1.e-11
    Iter = 17, relRef = 2.19365e-10, res = 1.87053e-07, resAbs = 3.49886e-14, nIters = 1, maxD = 0.00451721
    Solving
  0 KSP Residual norm 2.25631e-07 
  1 KSP Residual norm < 1.e-11
    Iter = 18, relRef = 3.19182e-10, res = 2.25631e-07, resAbs = 5.09094e-14, nIters = 1, maxD = 0.00451721
    Solving
  0 KSP Residual norm 1.3403e-07 
  1 KSP Residual norm < 1.e-11
    Iter = 19, relRef = 1.12627e-10, res = 1.3403e-07, resAbs = 1.7964e-14, nIters = 1, maxD = 0.00451721
    Solving
  0 KSP Residual norm 1.57944e-07 
  1 KSP Residual norm < 1.e-11
    Iter = 20, relRef = 1.56403e-10, res = 1.57944e-07, resAbs = 2.49462e-14, nIters = 1, maxD = 0.00451721
    Solving
  0 KSP Residual norm 1.00903e-07 
  1 KSP Residual norm < 1.e-11
    Iter = 21, relRef = 6.38339e-11, res = 1.00903e-07, resAbs = 1.01815e-14, nIters = 1, maxD = 0.00451721
    Converged
    Max DEpsilonPEq is 0.00045824
    646 cells (2.01875% of the cells in this material) are actively yielding

ExecutionTime = 726.58 s  ClockTime = 800 s

Time = 8.8

Evolving solid solver
    Solving
  0 KSP Residual norm 0.0126827 
  1 KSP Residual norm < 1.e-11
    Initial residual = 0.00016085
    Iter = 0, relRef = 1, res = 0.0126827, resAbs = 0.00016085, nIters = 1, maxD = 0.00462382
    Solving
  0 KSP Residual norm 0.00243273 
  1 KSP Residual norm < 1.e-11
    Iter = 1, relRef = 0.036793, res = 0.00243273, resAbs = 5.91817e-06, nIters = 1, maxD = 0.00463722
    Solving
  0 KSP Residual norm 0.000542579 
  1 KSP Residual norm < 1.e-11
    Iter = 2, relRef = 0.00183023, res = 0.000542579, resAbs = 2.94392e-07, nIters = 1, maxD = 0.0046403
    Solving
  0 KSP Residual norm 0.000245403 
  1 KSP Residual norm < 1.e-11
    Iter = 3, relRef = 0.000374402, res = 0.000245403, resAbs = 6.02227e-08, nIters = 1, maxD = 0.00464169
    Solving
  0 KSP Residual norm 9.12099e-05 
  1 KSP Residual norm < 1.e-11
    Iter = 4, relRef = 5.17204e-05, res = 9.12099e-05, resAbs = 8.31924e-09, nIters = 1, maxD = 0.00464221
    Solving
  0 KSP Residual norm 4.68162e-05 
  1 KSP Residual norm < 1.e-11
    Iter = 5, relRef = 1.36261e-05, res = 4.68162e-05, resAbs = 2.19176e-09, nIters = 1, maxD = 0.00464248
    Solving
  0 KSP Residual norm 2.16792e-05 
  1 KSP Residual norm < 1.e-11
    Iter = 6, relRef = 2.92189e-06, res = 2.16792e-05, resAbs = 4.69987e-10, nIters = 1, maxD = 0.0046426
    Solving
  0 KSP Residual norm 1.26874e-05 
  1 KSP Residual norm < 1.e-11
    Iter = 7, relRef = 1.00074e-06, res = 1.26874e-05, resAbs = 1.6097e-10, nIters = 1, maxD = 0.00464267
    Solving
  0 KSP Residual norm 6.67957e-06 
  1 KSP Residual norm < 1.e-11
    Iter = 8, relRef = 2.7738e-07, res = 6.67957e-06, resAbs = 4.46166e-11, nIters = 1, maxD = 0.00464271
    Solving
  0 KSP Residual norm 4.22104e-06 
  1 KSP Residual norm < 1.e-11
    Iter = 9, relRef = 1.10769e-07, res = 4.22104e-06, resAbs = 1.78172e-11, nIters = 1, maxD = 0.00464273
    Solving
  0 KSP Residual norm 2.53741e-06 
  1 KSP Residual norm < 1.e-11
    Iter = 10, relRef = 4.00274e-08, res = 2.53741e-06, resAbs = 6.43842e-12, nIters = 1, maxD = 0.00464275
    Solving
  0 KSP Residual norm 1.62985e-06 
  1 KSP Residual norm < 1.e-11
    Iter = 11, relRef = 1.65149e-08, res = 1.62985e-06, resAbs = 2.65643e-12, nIters = 1, maxD = 0.00464275
    Solving
  0 KSP Residual norm 1.17274e-06 
  1 KSP Residual norm < 1.e-11
    Iter = 12, relRef = 8.55032e-09, res = 1.17274e-06, resAbs = 1.37532e-12, nIters = 1, maxD = 0.00464276
    Solving
  0 KSP Residual norm 7.26385e-07 
  1 KSP Residual norm < 1.e-11
    Iter = 13, relRef = 3.28029e-09, res = 7.26385e-07, resAbs = 5.27635e-13, nIters = 1, maxD = 0.00464276
    Solving
  0 KSP Residual norm 6.39573e-07 
  1 KSP Residual norm < 1.e-11
    Iter = 14, relRef = 2.54307e-09, res = 6.39573e-07, resAbs = 4.09054e-13, nIters = 1, maxD = 0.00464277
    Solving
  0 KSP Residual norm 3.78388e-07 
  1 KSP Residual norm < 1.e-11
    Iter = 15, relRef = 8.90128e-10, res = 3.78388e-07, resAbs = 1.43177e-13, nIters = 1, maxD = 0.00464277
    Solving
  0 KSP Residual norm 3.92755e-07 
  1 KSP Residual norm < 1.e-11
    Iter = 16, relRef = 9.59007e-10, res = 3.92755e-07, resAbs = 1.54257e-13, nIters = 1, maxD = 0.00464277
    Solving
  0 KSP Residual norm 2.29873e-07 
  1 KSP Residual norm < 1.e-11
    Iter = 17, relRef = 3.28515e-10, res = 2.29873e-07, resAbs = 5.28417e-14, nIters = 1, maxD = 0.00464277
    Solving
  0 KSP Residual norm 2.608e-07 
  1 KSP Residual norm < 1.e-11
    Iter = 18, relRef = 4.22857e-10, res = 2.608e-07, resAbs = 6.80166e-14, nIters = 1, maxD = 0.00464277
    Solving
  0 KSP Residual norm 1.57243e-07 
  1 KSP Residual norm < 1.e-11
    Iter = 19, relRef = 1.53716e-10, res = 1.57243e-07, resAbs = 2.47253e-14, nIters = 1, maxD = 0.00464277
    Solving
  0 KSP Residual norm 1.82223e-07 
  1 KSP Residual norm < 1.e-11
    Iter = 20, relRef = 2.06436e-10, res = 1.82223e-07, resAbs = 3.32054e-14, nIters = 1, maxD = 0.00464277
    Solving
  0 KSP Residual norm 1.1557e-07 
  1 KSP Residual norm < 1.e-11
    Iter = 21, relRef = 8.30369e-11, res = 1.1557e-07, resAbs = 1.33565e-14, nIters = 1, maxD = 0.00464277
    Converged
    Max DEpsilonPEq is 0.000470164
    717 cells (2.24063% of the cells in this material) are actively yielding

ExecutionTime = 785.26 s  ClockTime = 871 s

Time = 9

Evolving solid solver
    Solving
  0 KSP Residual norm 0.012747 
  1 KSP Residual norm < 1.e-11
    Initial residual = 0.000162487
    Iter = 0, relRef = 1, res = 0.012747, resAbs = 0.000162487, nIters = 1, maxD = 0.00474977
    Solving
  0 KSP Residual norm 0.00270113 
  1 KSP Residual norm < 1.e-11
    Iter = 1, relRef = 0.0449026, res = 0.00270113, resAbs = 7.2961e-06, nIters = 1, maxD = 0.00476468
    Solving
  0 KSP Residual norm 0.000600204 
  1 KSP Residual norm < 1.e-11
    Iter = 2, relRef = 0.00221707, res = 0.000600204, resAbs = 3.60245e-07, nIters = 1, maxD = 0.00476809
    Solving
  0 KSP Residual norm 0.000279909 
  1 KSP Residual norm < 1.e-11
    Iter = 3, relRef = 0.000482185, res = 0.000279909, resAbs = 7.83489e-08, nIters = 1, maxD = 0.00476968
    Solving
  0 KSP Residual norm 0.000105856 
  1 KSP Residual norm < 1.e-11
    Iter = 4, relRef = 6.8962e-05, res = 0.000105856, resAbs = 1.12054e-08, nIters = 1, maxD = 0.00477028
    Solving
  0 KSP Residual norm 5.54962e-05 
  1 KSP Residual norm < 1.e-11
    Iter = 5, relRef = 1.89543e-05, res = 5.54962e-05, resAbs = 3.07983e-09, nIters = 1, maxD = 0.0047706
    Solving
  0 KSP Residual norm 2.64981e-05 
  1 KSP Residual norm < 1.e-11
    Iter = 6, relRef = 4.32127e-06, res = 2.64981e-05, resAbs = 7.02151e-10, nIters = 1, maxD = 0.00477075
    Solving
  0 KSP Residual norm 1.56704e-05 
  1 KSP Residual norm < 1.e-11
    Iter = 7, relRef = 1.51127e-06, res = 1.56704e-05, resAbs = 2.45563e-10, nIters = 1, maxD = 0.00477084
    Solving
  0 KSP Residual norm 8.46302e-06 
  1 KSP Residual norm < 1.e-11
    Iter = 8, relRef = 4.4079e-07, res = 8.46302e-06, resAbs = 7.16228e-11, nIters = 1, maxD = 0.00477089
    Solving
  0 KSP Residual norm 5.41726e-06 
  1 KSP Residual norm < 1.e-11
    Iter = 9, relRef = 1.80609e-07, res = 5.41726e-06, resAbs = 2.93467e-11, nIters = 1, maxD = 0.00477092
[...]
  1 KSP Residual norm < 1.e-11
    Initial residual = 0.000138525
    Iter = 0, relRef = 1, res = 0.0117697, resAbs = 0.000138525, nIters = 1, maxD = 0.00368015
    Solving
  0 KSP Residual norm < 1.e-11
    Iter = 1, relRef = 0, res = 0, resAbs = 0, nIters = 0, maxD = 0.00368015
    Converged
    Max DEpsilonPEq is 0
    0 cells (0% of the cells in this material) are actively yielding

ExecutionTime = 1366.94 s  ClockTime = 1535 s

Time = 13.8

Evolving solid solver
    Solving
  0 KSP Residual norm 0.0117697 
  1 KSP Residual norm < 1.e-11
    Initial residual = 0.000138525
    Iter = 0, relRef = 1, res = 0.0117697, resAbs = 0.000138525, nIters = 1, maxD = 0.00357897
    Solving
  0 KSP Residual norm < 1.e-11
    Iter = 1, relRef = 0, res = 0, resAbs = 0, nIters = 0, maxD = 0.00357897
    Converged
    Max DEpsilonPEq is 0
    0 cells (0% of the cells in this material) are actively yielding

ExecutionTime = 1373.38 s  ClockTime = 1542 s

Time = 14

Evolving solid solver
    Solving
  0 KSP Residual norm 0.0117697 
  1 KSP Residual norm < 1.e-11
    Initial residual = 0.000138525
    Iter = 0, relRef = 1, res = 0.0117697, resAbs = 0.000138525, nIters = 1, maxD = 0.00347779
    Solving
  0 KSP Residual norm < 1.e-11
    Iter = 1, relRef = 0, res = 0, resAbs = 0, nIters = 0, maxD = 0.00347779
    Converged
    Max DEpsilonPEq is 0
    0 cells (0% of the cells in this material) are actively yielding

Max pEpsilonEq = 0.0116001
Max epsilonEq = 0.0115807
Max sigmaEq (von Mises stress) = 1.69997e+08
ExecutionTime = 1380.2 s  ClockTime = 1550 s

Time = 14.2

Evolving solid solver
    Solving
  0 KSP Residual norm 0.0117697 
  1 KSP Residual norm < 1.e-11
    Initial residual = 0.000138525
    Iter = 0, relRef = 1, res = 0.0117697, resAbs = 0.000138525, nIters = 1, maxD = 0.00337661
    Solving
  0 KSP Residual norm < 1.e-11
    Iter = 1, relRef = 0, res = 0, resAbs = 0, nIters = 0, maxD = 0.00337661
    Converged
    Max DEpsilonPEq is 0
    0 cells (0% of the cells in this material) are actively yielding

ExecutionTime = 1386.67 s  ClockTime = 1557 s

Time = 14.4

Evolving solid solver
    Solving
  0 KSP Residual norm 0.0117697 
  1 KSP Residual norm < 1.e-11
    Initial residual = 0.000138525
    Iter = 0, relRef = 1, res = 0.0117697, resAbs = 0.000138525, nIters = 1, maxD = 0.00327543
    Solving
  0 KSP Residual norm < 1.e-11
    Iter = 1, relRef = 0, res = 0, resAbs = 0, nIters = 0, maxD = 0.00327543
    Converged
    Max DEpsilonPEq is 0
    0 cells (0% of the cells in this material) are actively yielding

ExecutionTime = 1392.17 s  ClockTime = 1564 s

Time = 14.6

Evolving solid solver
    Solving
  0 KSP Residual norm 0.0117697 
  1 KSP Residual norm < 1.e-11
    Initial residual = 0.000138525
    Iter = 0, relRef = 1, res = 0.0117697, resAbs = 0.000138525, nIters = 1, maxD = 0.00317425
    Solving
  0 KSP Residual norm < 1.e-11
    Iter = 1, relRef = 0, res = 0, resAbs = 0, nIters = 0, maxD = 0.00317425
    Converged
    Max DEpsilonPEq is 0
    0 cells (0% of the cells in this material) are actively yielding

ExecutionTime = 1398.56 s  ClockTime = 1572 s

Time = 14.8

Evolving solid solver
    Solving
  0 KSP Residual norm 0.0117697 
  1 KSP Residual norm < 1.e-11
    Initial residual = 0.000138525
    Iter = 0, relRef = 1, res = 0.0117697, resAbs = 0.000138525, nIters = 1, maxD = 0.00307307
    Solving
  0 KSP Residual norm < 1.e-11
    Iter = 1, relRef = 0, res = 0, resAbs = 0, nIters = 0, maxD = 0.00307307
    Converged
    Max DEpsilonPEq is 0
    0 cells (0% of the cells in this material) are actively yielding

ExecutionTime = 1404.92 s  ClockTime = 1579 s

Time = 15

Evolving solid solver
    Solving
  0 KSP Residual norm 0.0117697 
  1 KSP Residual norm < 1.e-11
    Initial residual = 0.000138525
    Iter = 0, relRef = 1, res = 0.0117697, resAbs = 0.000138525, nIters = 1, maxD = 0.00297188
    Solving
  0 KSP Residual norm < 1.e-11
    Iter = 1, relRef = 0, res = 0, resAbs = 0, nIters = 0, maxD = 0.00297188
    Converged
    Max DEpsilonPEq is 0
    0 cells (0% of the cells in this material) are actively yielding

Max pEpsilonEq = 0.0109822
Max epsilonEq = 0.010954
Max sigmaEq (von Mises stress) = 1.51807e+08
ExecutionTime = 1412.14 s  ClockTime = 1587 s

Time = 15.2

Evolving solid solver
    Solving
  0 KSP Residual norm 0.0117697 
  1 KSP Residual norm < 1.e-11
    Initial residual = 0.000138525
    Iter = 0, relRef = 1, res = 0.0117697, resAbs = 0.000138525, nIters = 1, maxD = 0.0028707
    Solving
  0 KSP Residual norm < 1.e-11
    Iter = 1, relRef = 0, res = 0, resAbs = 0, nIters = 0, maxD = 0.0028707
    Converged
    Max DEpsilonPEq is 0
    0 cells (0% of the cells in this material) are actively yielding

ExecutionTime = 1418.4 s  ClockTime = 1594 s

Time = 15.4

Evolving solid solver
    Solving
  0 KSP Residual norm 0.0117697 
  1 KSP Residual norm < 1.e-11
    Initial residual = 0.000138525
    Iter = 0, relRef = 1, res = 0.0117697, resAbs = 0.000138525, nIters = 1, maxD = 0.00276952
    Solving
  0 KSP Residual norm < 1.e-11
    Iter = 1, relRef = 0, res = 0, resAbs = 0, nIters = 0, maxD = 0.00276952
    Converged
    Max DEpsilonPEq is 0
    0 cells (0% of the cells in this material) are actively yielding

ExecutionTime = 1424.63 s  ClockTime = 1601 s

Time = 15.6

Evolving solid solver
    Solving
  0 KSP Residual norm 0.0117697 
  1 KSP Residual norm < 1.e-11
    Initial residual = 0.000138525
    Iter = 0, relRef = 1, res = 0.0117697, resAbs = 0.000138525, nIters = 1, maxD = 0.00266834
    Solving
  0 KSP Residual norm < 1.e-11
    Iter = 1, relRef = 0, res = 0, resAbs = 0, nIters = 0, maxD = 0.00266834
    Converged
    Max DEpsilonPEq is 0
    0 cells (0% of the cells in this material) are actively yielding

ExecutionTime = 1430.37 s  ClockTime = 1609 s

Time = 15.8

Evolving solid solver
    Solving
  0 KSP Residual norm 0.0117697 
  1 KSP Residual norm < 1.e-11
    Initial residual = 0.000138525
    Iter = 0, relRef = 1, res = 0.0117697, resAbs = 0.000138525, nIters = 1, maxD = 0.00256716
    Solving
  0 KSP Residual norm < 1.e-11
    Iter = 1, relRef = 0, res = 0, resAbs = 0, nIters = 0, maxD = 0.00256716
    Converged
    Max DEpsilonPEq is 0
    0 cells (0% of the cells in this material) are actively yielding

ExecutionTime = 1436.56 s  ClockTime = 1616 s

Time = 16

Evolving solid solver
    Solving
  0 KSP Residual norm 0.0117697 
  1 KSP Residual norm < 1.e-11
    Initial residual = 0.000138525
    Iter = 0, relRef = 1, res = 0.0117697, resAbs = 0.000138525, nIters = 1, maxD = 0.00246598
    Solving
  0 KSP Residual norm < 1.e-11
    Iter = 1, relRef = 0, res = 0, resAbs = 0, nIters = 0, maxD = 0.00246598
    Converged
    Max DEpsilonPEq is 0
    0 cells (0% of the cells in this material) are actively yielding

Max pEpsilonEq = 0.0103662
Max epsilonEq = 0.0103443
Max sigmaEq (von Mises stress) = 1.33662e+08
ExecutionTime = 1443.56 s  ClockTime = 1624 s

Time = 16.2

Evolving solid solver
    Solving
  0 KSP Residual norm 0.0117697 
  1 KSP Residual norm < 1.e-11
    Initial residual = 0.000138525
    Iter = 0, relRef = 1, res = 0.0117697, resAbs = 0.000138525, nIters = 1, maxD = 0.0023648
    Solving
  0 KSP Residual norm < 1.e-11
    Iter = 1, relRef = 0, res = 0, resAbs = 0, nIters = 0, maxD = 0.0023648
    Converged
    Max DEpsilonPEq is 0
    0 cells (0% of the cells in this material) are actively yielding

ExecutionTime = 1449.77 s  ClockTime = 1631 s

Time = 16.4

Evolving solid solver
    Solving
  0 KSP Residual norm 0.0117697 
  1 KSP Residual norm < 1.e-11
    Initial residual = 0.000138525
    Iter = 0, relRef = 1, res = 0.0117697, resAbs = 0.000138525, nIters = 1, maxD = 0.00226362
    Solving
  0 KSP Residual norm < 1.e-11
    Iter = 1, relRef = 0, res = 0, resAbs = 0, nIters = 0, maxD = 0.00226362
    Converged
    Max DEpsilonPEq is 0
    0 cells (0% of the cells in this material) are actively yielding

ExecutionTime = 1456.21 s  ClockTime = 1638 s

Time = 16.6

Evolving solid solver
    Solving
  0 KSP Residual norm 0.0117697 
  1 KSP Residual norm < 1.e-11
    Initial residual = 0.000138525
    Iter = 0, relRef = 1, res = 0.0117697, resAbs = 0.000138525, nIters = 1, maxD = 0.00216244
    Solving
  0 KSP Residual norm < 1.e-11
    Iter = 1, relRef = 0, res = 0, resAbs = 0, nIters = 0, maxD = 0.00216244
    Converged
    Max DEpsilonPEq is 0
    0 cells (0% of the cells in this material) are actively yielding

ExecutionTime = 1462.42 s  ClockTime = 1645 s

Time = 16.8

Evolving solid solver
    Solving
  0 KSP Residual norm 0.0117697 
  1 KSP Residual norm < 1.e-11
    Initial residual = 0.000138525
    Iter = 0, relRef = 1, res = 0.0117697, resAbs = 0.000138525, nIters = 1, maxD = 0.00206126
    Solving
  0 KSP Residual norm < 1.e-11
    Iter = 1, relRef = 0, res = 0, resAbs = 0, nIters = 0, maxD = 0.00206126
    Converged
    Max DEpsilonPEq is 0
    0 cells (0% of the cells in this material) are actively yielding

ExecutionTime = 1468.72 s  ClockTime = 1653 s

Time = 17

Evolving solid solver
    Solving
  0 KSP Residual norm 0.0117697 
  1 KSP Residual norm < 1.e-11
    Initial residual = 0.000138525
    Iter = 0, relRef = 1, res = 0.0117697, resAbs = 0.000138525, nIters = 1, maxD = 0.00196008
    Solving
  0 KSP Residual norm < 1.e-11
    Iter = 1, relRef = 0, res = 0, resAbs = 0, nIters = 0, maxD = 0.00196008
    Converged
    Max DEpsilonPEq is 0
    0 cells (0% of the cells in this material) are actively yielding

Max pEpsilonEq = 0.00975243
Max epsilonEq = 0.00974212
Max sigmaEq (von Mises stress) = 1.35831e+08
ExecutionTime = 1475.63 s  ClockTime = 1660 s

Time = 17.2

Evolving solid solver
    Solving
  0 KSP Residual norm 0.0117697 
  1 KSP Residual norm < 1.e-11
    Initial residual = 0.000138525
    Iter = 0, relRef = 1, res = 0.0117697, resAbs = 0.000138525, nIters = 1, maxD = 0.0018589
    Solving
  0 KSP Residual norm < 1.e-11
    Iter = 1, relRef = 0, res = 0, resAbs = 0, nIters = 0, maxD = 0.0018589
    Converged
    Max DEpsilonPEq is 0
    0 cells (0% of the cells in this material) are actively yielding

ExecutionTime = 1482.06 s  ClockTime = 1668 s

Time = 17.4

Evolving solid solver
    Solving
  0 KSP Residual norm 0.0117697 
  1 KSP Residual norm < 1.e-11
    Initial residual = 0.000138525
    Iter = 0, relRef = 1, res = 0.0117697, resAbs = 0.000138525, nIters = 1, maxD = 0.00175771
    Solving
  0 KSP Residual norm < 1.e-11
    Iter = 1, relRef = 0, res = 0, resAbs = 0, nIters = 0, maxD = 0.00175771
    Converged
    Max DEpsilonPEq is 0
    0 cells (0% of the cells in this material) are actively yielding

ExecutionTime = 1488.33 s  ClockTime = 1675 s

Time = 17.6

Evolving solid solver
    Solving
  0 KSP Residual norm 0.0117697 
  1 KSP Residual norm < 1.e-11
    Initial residual = 0.000138525
    Iter = 0, relRef = 1, res = 0.0117697, resAbs = 0.000138525, nIters = 1, maxD = 0.00165653
    Solving
  0 KSP Residual norm < 1.e-11
    Iter = 1, relRef = 0, res = 0, resAbs = 0, nIters = 0, maxD = 0.00165653
    Converged
    Max DEpsilonPEq is 0
    0 cells (0% of the cells in this material) are actively yielding

ExecutionTime = 1495.02 s  ClockTime = 1682 s

Time = 17.8

Evolving solid solver
    Solving
  0 KSP Residual norm 0.0117697 
  1 KSP Residual norm < 1.e-11
    Initial residual = 0.000138525
    Iter = 0, relRef = 1, res = 0.0117697, resAbs = 0.000138525, nIters = 1, maxD = 0.00155535
    Solving
  0 KSP Residual norm < 1.e-11
    Iter = 1, relRef = 0, res = 0, resAbs = 0, nIters = 0, maxD = 0.00155535
    Converged
    Max DEpsilonPEq is 0
    0 cells (0% of the cells in this material) are actively yielding

ExecutionTime = 1501.35 s  ClockTime = 1690 s

Time = 18

Evolving solid solver
    Solving
  0 KSP Residual norm 0.0117697 
  1 KSP Residual norm < 1.e-11
    Initial residual = 0.000138525
    Iter = 0, relRef = 1, res = 0.0117697, resAbs = 0.000138525, nIters = 1, maxD = 0.00145417
    Solving
  0 KSP Residual norm < 1.e-11
    Iter = 1, relRef = 0, res = 0, resAbs = 0, nIters = 0, maxD = 0.00145417
    Converged
    Max DEpsilonPEq is 0
    0 cells (0% of the cells in this material) are actively yielding

Max pEpsilonEq = 0.00914197
Max epsilonEq = 0.00915305
Max sigmaEq (von Mises stress) = 1.84738e+08
ExecutionTime = 1508.11 s  ClockTime = 1698 s

Time = 18.2

Evolving solid solver
    Solving
  0 KSP Residual norm 0.0117697 
  1 KSP Residual norm < 1.e-11
    Initial residual = 0.000138525
    Iter = 0, relRef = 1, res = 0.0117697, resAbs = 0.000138525, nIters = 1, maxD = 0.00135299
    Solving
  0 KSP Residual norm < 1.e-11
    Iter = 1, relRef = 0, res = 0, resAbs = 0, nIters = 0, maxD = 0.00135299
    Converged
    Max DEpsilonPEq is 0
    0 cells (0% of the cells in this material) are actively yielding

ExecutionTime = 1513.82 s  ClockTime = 1705 s

Time = 18.4

Evolving solid solver
    Solving
  0 KSP Residual norm 0.0117697 
  1 KSP Residual norm < 1.e-11
    Initial residual = 0.000138525
    Iter = 0, relRef = 1, res = 0.0117697, resAbs = 0.000138525, nIters = 1, maxD = 0.00125181
    Solving
  0 KSP Residual norm < 1.e-11
    Iter = 1, relRef = 0, res = 0, resAbs = 0, nIters = 0, maxD = 0.00125181
    Converged
    Max DEpsilonPEq is 0
    0 cells (0% of the cells in this material) are actively yielding

ExecutionTime = 1520.04 s  ClockTime = 1713 s

Time = 18.6

Evolving solid solver
    Solving
  0 KSP Residual norm 0.0117697 
  1 KSP Residual norm < 1.e-11
    Initial residual = 0.000138525
    Iter = 0, relRef = 1, res = 0.0117697, resAbs = 0.000138525, nIters = 1, maxD = 0.00115063
    Solving
  0 KSP Residual norm < 1.e-11
    Iter = 1, relRef = 0, res = 0, resAbs = 0, nIters = 0, maxD = 0.00115063
    Converged
    Max DEpsilonPEq is 0
    0 cells (0% of the cells in this material) are actively yielding

ExecutionTime = 1526.67 s  ClockTime = 1720 s

Time = 18.8

Evolving solid solver
    Solving
  0 KSP Residual norm 0.0117697 
  1 KSP Residual norm < 1.e-11
    Initial residual = 0.000138525
    Iter = 0, relRef = 1, res = 0.0117697, resAbs = 0.000138525, nIters = 1, maxD = 0.00104945
    Solving
  0 KSP Residual norm < 1.e-11
    Iter = 1, relRef = 0, res = 0, resAbs = 0, nIters = 0, maxD = 0.00104945
    Converged
    Max DEpsilonPEq is 0
    0 cells (0% of the cells in this material) are actively yielding

ExecutionTime = 1532.91 s  ClockTime = 1728 s

Time = 19

Evolving solid solver
    Solving
  0 KSP Residual norm 0.0117697 
  1 KSP Residual norm < 1.e-11
    Initial residual = 0.000138525
    Iter = 0, relRef = 1, res = 0.0117697, resAbs = 0.000138525, nIters = 1, maxD = 0.000948267
    Solving
  0 KSP Residual norm < 1.e-11
    Iter = 1, relRef = 0, res = 0, resAbs = 0, nIters = 0, maxD = 0.000948267
    Converged
    Max DEpsilonPEq is 0
    0 cells (0% of the cells in this material) are actively yielding

Max pEpsilonEq = 0.00857472
Max epsilonEq = 0.00858505
Max sigmaEq (von Mises stress) = 2.34895e+08
ExecutionTime = 1539.85 s  ClockTime = 1736 s

Time = 19.2

Evolving solid solver
    Solving
  0 KSP Residual norm 0.0117697 
  1 KSP Residual norm < 1.e-11
    Initial residual = 0.000138525
    Iter = 0, relRef = 1, res = 0.0117697, resAbs = 0.000138525, nIters = 1, maxD = 0.000891087
    Solving
  0 KSP Residual norm 1.10642e-06 
  1 KSP Residual norm < 1.e-11
    Iter = 1, relRef = 8.83719e-09, res = 1.10642e-06, resAbs = 1.22417e-12, nIters = 1, maxD = 0.000891077
    Solving
  0 KSP Residual norm 1.66216e-09 
  1 KSP Residual norm < 1.e-11
    Iter = 2, relRef = 1.99441e-14, res = 1.66216e-09, resAbs = 2.76276e-18, nIters = 1, maxD = 0.000891077
    Converged
    Max DEpsilonPEq is 4.11246e-05
    1 cells (0.003125% of the cells in this material) are actively yielding

ExecutionTime = 1549.01 s  ClockTime = 1746 s

Time = 19.4

Evolving solid solver
    Solving
  0 KSP Residual norm 0.0117703 
  1 KSP Residual norm < 1.e-11
    Initial residual = 0.00013854
    Iter = 0, relRef = 1, res = 0.0117703, resAbs = 0.00013854, nIters = 1, maxD = 0.000850859
    Solving
  0 KSP Residual norm 1.23738e-05 
  1 KSP Residual norm < 1.e-11
    Iter = 1, relRef = 1.10518e-06, res = 1.23738e-05, resAbs = 1.53112e-10, nIters = 1, maxD = 0.000850739
    Solving
  0 KSP Residual norm 9.26543e-08 
  1 KSP Residual norm < 1.e-11
    Iter = 2, relRef = 6.19662e-11, res = 9.26543e-08, resAbs = 8.58482e-15, nIters = 1, maxD = 0.000850738
    Converged
    Max DEpsilonPEq is 0.000174082
    5 cells (0.015625% of the cells in this material) are actively yielding

ExecutionTime = 1557.7 s  ClockTime = 1757 s

Time = 19.6

Evolving solid solver
    Solving
  0 KSP Residual norm 0.0117725 
  1 KSP Residual norm < 1.e-11
    Initial residual = 0.000138591
    Iter = 0, relRef = 1, res = 0.0117725, resAbs = 0.000138591, nIters = 1, maxD = 0.000812352
    Solving
  0 KSP Residual norm 2.86037e-05 
  1 KSP Residual norm < 1.e-11
    Iter = 1, relRef = 5.90349e-06, res = 2.86037e-05, resAbs = 8.18171e-10, nIters = 1, maxD = 0.000812065
    Solving
  0 KSP Residual norm 2.81339e-07 
  1 KSP Residual norm < 1.e-11
    Iter = 2, relRef = 5.71117e-10, res = 2.81339e-07, resAbs = 7.91516e-14, nIters = 1, maxD = 0.000812062
    Solving
  0 KSP Residual norm 2.56613e-08 
  1 KSP Residual norm < 1.e-11
    Iter = 3, relRef = 4.7514e-12, res = 2.56613e-08, resAbs = 6.58501e-16, nIters = 1, maxD = 0.000812062
    Converged
    Max DEpsilonPEq is 0.000185404
    12 cells (0.0375% of the cells in this material) are actively yielding

ExecutionTime = 1570.27 s  ClockTime = 1771 s

Time = 19.8

Evolving solid solver
    Solving
  0 KSP Residual norm 0.0117766 
  1 KSP Residual norm < 1.e-11
    Initial residual = 0.000138689
    Iter = 0, relRef = 1, res = 0.0117766, resAbs = 0.000138689, nIters = 1, maxD = 0.000774141
    Solving
  0 KSP Residual norm 5.50615e-05 
  1 KSP Residual norm < 1.e-11
    Iter = 1, relRef = 2.18602e-05, res = 5.50615e-05, resAbs = 3.03177e-09, nIters = 1, maxD = 0.000773578
    Solving
  0 KSP Residual norm 1.01532e-06 
  1 KSP Residual norm < 1.e-11
    Iter = 2, relRef = 7.43295e-09, res = 1.01532e-06, resAbs = 1.03087e-12, nIters = 1, maxD = 0.000773566
    Solving
  0 KSP Residual norm 1.20471e-07 
  1 KSP Residual norm < 1.e-11
    Iter = 3, relRef = 1.04646e-10, res = 1.20471e-07, resAbs = 1.45132e-14, nIters = 1, maxD = 0.000773565
    Solving
  0 KSP Residual norm 6.21208e-09 
  1 KSP Residual norm < 1.e-11
    Iter = 4, relRef = 2.78249e-13, res = 6.21208e-09, resAbs = 3.859e-17, nIters = 1, maxD = 0.000773565
    Converged
    Max DEpsilonPEq is 0.000186369
    20 cells (0.0625% of the cells in this material) are actively yielding

ExecutionTime = 1585.33 s  ClockTime = 1789 s

Time = 20

Evolving solid solver
    Solving
  0 KSP Residual norm 0.011781 
  1 KSP Residual norm < 1.e-11
    Initial residual = 0.000138792
    Iter = 0, relRef = 1, res = 0.011781, resAbs = 0.000138792, nIters = 1, maxD = 0.000737611
    Solving
  0 KSP Residual norm 8.54382e-05 
  1 KSP Residual norm < 1.e-11
    Iter = 1, relRef = 5.25943e-05, res = 8.54382e-05, resAbs = 7.29969e-09, nIters = 1, maxD = 0.000736699
    Solving
  0 KSP Residual norm 1.52082e-06 
  1 KSP Residual norm < 1.e-11
    Iter = 2, relRef = 1.66644e-08, res = 1.52082e-06, resAbs = 2.31289e-12, nIters = 1, maxD = 0.000736682
    Solving
  0 KSP Residual norm 3.05257e-07 
  1 KSP Residual norm < 1.e-11
    Iter = 3, relRef = 6.71374e-10, res = 3.05257e-07, resAbs = 9.31815e-14, nIters = 1, maxD = 0.000736679
    Solving
  0 KSP Residual norm 8.79976e-09 
  1 KSP Residual norm < 1.e-11
    Iter = 4, relRef = 5.57925e-13, res = 8.79976e-09, resAbs = 7.74357e-17, nIters = 1, maxD = 0.000736679
    Converged
    Max DEpsilonPEq is 0.00020295
    29 cells (0.090625% of the cells in this material) are actively yielding

Max pEpsilonEq = 0.0079754
Max epsilonEq = 0.00798664
Max sigmaEq (von Mises stress) = 2.43e+08
ExecutionTime = 1600.84 s  ClockTime = 1808 s

The momentum equation converged in all time-steps


End

