/*---------------------------------------------------------------------------*\
| =========                 |                                                 |
| \\      /  F ield         | OpenFOAM: The Open Source CFD Toolbox           |
|  \\    /   O peration     | Version:  v2012                                 |
|   \\  /    A nd           | Website:  www.openfoam.com                      |
|    \\/     M anipulation  |                                                 |
\*---------------------------------------------------------------------------*/
Build  : _7bdb509494-20201222 OPENFOAM=2012
Arch   : "LSB;label=32;scalar=64"
Exec   : solids4Foam
Date   : Aug 24 2023
Time   : 14:29:57
Host   : DESKTOP-19FOE2K
PID    : 17635
I/O    : uncollated
Case   : /home/federico/OpenFOAM/federico-v2012/run/solidBenchmarks/Small-strain/elastoplasticity/narrowTmember/vertexCentredLinGeomSolid/unstructuredTriangles/vertex.3
nProcs : 1
trapFpe: Floating point exception trapping enabled (FOAM_SIGFPE).
fileModificationChecking : Monitoring run-time modified files using timeStampMaster (fileModificationSkew 5, maxFileModificationPolls 20)
allowSystemOperations : Allowing user-supplied system call operations

// * * * * * * * * * * * * * * * * * * * * * * * * * * * * * * * * * * * * * //
Create time

--> FOAM Warning : 
    From static Foam::IOstreamOption::compressionType Foam::IOstreamOption::compressionEnum(const Foam::word&, Foam::IOstreamOption::compressionType)
    in file db/IOstreams/IOstreams/IOstreamOption.C at line 115
    Unknown compression specifier 'uncompressed', using compression off
/*---------------------------------------------------------------------------*\
|    For further information on the solids4Foam toolbox implementations,      |
|    please see the following publications:                                   |
|                                                                             |
|    P. Cardiff, A Karac, P. De Jaeger, H. Jasak, J. Nagy, A. Ivankovic,      |
|    Z. Tukovic: An open-source finite volume toolbox for solid mechanics and |
|    fluid-solid interaction simulations. arXiv:1808.10736v2, 2018, available |
|    at https://arxiv.org/abs/1808.10736.                                     |
|                                                                             |
|    Z. Tukovic, A. Karac, P. Cardiff, H. Jasak, A. Ivankovic: OpenFOAM       |
|    finite volume solver for fluid-solid interaction.  Transactions of       |
|    Famena, 42 (3), pp. 1-31, 2018, 10.21278/TOF.42301.                      |
\*---------------------------------------------------------------------------*/

Selecting physicsModel solidModel
Selecting solidModel vertexCentredLinearGeometry
Selecting dynamicFvMesh staticFvMesh
    under-relaxation method: fixed
Creating dualMesh
    featureAngle: 30
    doNotPreserveFaceZones: 0
    concaveMultiCells: 0
Constructing dualFaceToCell:
    internal faces not set: 0
    boundary faces not set: 1

Creating the mechanicalModel
Selecting mechanical law linearElasticMisesPlastic
    Plasticity is linear
Creating the dualMechanicalModel
Selecting mechanical law linearElasticMisesPlastic
    Plasticity is linear
fixedDofScale: 1.40226e+08
Time = 1

Evolving solid solver
    Solving
  0 KSP Residual norm 2.27249e-06 
  1 KSP Residual norm 8.64874e-07 
  2 KSP Residual norm 8.70505e-07 
  3 KSP Residual norm 7.91882e-07 
  4 KSP Residual norm 7.36476e-07 
  5 KSP Residual norm 6.70948e-07 
  6 KSP Residual norm 6.82649e-07 
  7 KSP Residual norm 6.49482e-07 
  8 KSP Residual norm 7.16319e-07 
  9 KSP Residual norm 8.07167e-07 
 10 KSP Residual norm 8.285e-07 
 11 KSP Residual norm 8.86047e-07 
 12 KSP Residual norm 1.00552e-06 
 13 KSP Residual norm 1.15067e-06 
 14 KSP Residual norm 1.19624e-06 
 15 KSP Residual norm 1.24405e-06 
 16 KSP Residual norm 1.28285e-06 
 17 KSP Residual norm 1.40292e-06 
 18 KSP Residual norm 1.4303e-06 
 19 KSP Residual norm 1.35665e-06 
 20 KSP Residual norm 1.34968e-06 
 21 KSP Residual norm 1.44403e-06 
 22 KSP Residual norm 1.63774e-06 
 23 KSP Residual norm 1.9824e-06 
 24 KSP Residual norm 2.4972e-06 
 25 KSP Residual norm 2.55501e-06 
 26 KSP Residual norm 2.56892e-06 
 27 KSP Residual norm 2.94356e-06 
 28 KSP Residual norm 3.28083e-06 
 29 KSP Residual norm 3.43475e-06 
 30 KSP Residual norm 3.32167e-06 
 31 KSP Residual norm 3.25331e-06 
 32 KSP Residual norm 3.08198e-06 
 33 KSP Residual norm 2.82177e-06 
 34 KSP Residual norm 2.34674e-06 
 35 KSP Residual norm 1.82475e-06 
 36 KSP Residual norm 1.52064e-06 
 37 KSP Residual norm 1.31017e-06 
 38 KSP Residual norm 1.23966e-06 
 39 KSP Residual norm 1.20049e-06 
 40 KSP Residual norm 1.16247e-06 
 41 KSP Residual norm 1.0859e-06 
 42 KSP Residual norm 9.71221e-07 
 43 KSP Residual norm 8.75619e-07 
 44 KSP Residual norm 8.45391e-07 
 45 KSP Residual norm 8.43044e-07 
 46 KSP Residual norm 7.56488e-07 
 47 KSP Residual norm 6.56312e-07 
 48 KSP Residual norm 5.80532e-07 
 49 KSP Residual norm 5.36052e-07 
 50 KSP Residual norm 5.03209e-07 
 51 KSP Residual norm 4.50201e-07 
 52 KSP Residual norm 3.93649e-07 
 53 KSP Residual norm 3.27395e-07 
 54 KSP Residual norm 2.3966e-07 
 55 KSP Residual norm 1.84529e-07 
 56 KSP Residual norm 1.51598e-07 
 57 KSP Residual norm 1.27711e-07 
 58 KSP Residual norm 1.16591e-07 
 59 KSP Residual norm 1.07724e-07 
 60 KSP Residual norm 9.31265e-08 
 61 KSP Residual norm 8.33499e-08 
 62 KSP Residual norm 7.38255e-08 
 63 KSP Residual norm 6.09258e-08 
 64 KSP Residual norm 4.94393e-08 
 65 KSP Residual norm 3.97333e-08 
 66 KSP Residual norm 3.08483e-08 
 67 KSP Residual norm 2.3967e-08 
 68 KSP Residual norm 1.90812e-08 
 69 KSP Residual norm 1.37909e-08 
 70 KSP Residual norm 9.59467e-09 
 71 KSP Residual norm 6.7459e-09 
 72 KSP Residual norm 4.94491e-09 
 73 KSP Residual norm 3.87002e-09 
 74 KSP Residual norm 3.02033e-09 
 75 KSP Residual norm 2.44256e-09 
 76 KSP Residual norm 1.89232e-09 
 77 KSP Residual norm 1.35381e-09 
 78 KSP Residual norm 9.829e-10 
 79 KSP Residual norm 7.521e-10 
 80 KSP Residual norm 6.366e-10 
 81 KSP Residual norm 5.474e-10 
 82 KSP Residual norm 4.247e-10 
 83 KSP Residual norm 3.054e-10 
 84 KSP Residual norm 2.046e-10 
 85 KSP Residual norm 1.440e-10 
 86 KSP Residual norm 9.942e-11 
 87 KSP Residual norm 7.131e-11 
 88 KSP Residual norm 5.389e-11 
 89 KSP Residual norm 3.990e-11 
 90 KSP Residual norm 2.891e-11 
 91 KSP Residual norm 2.135e-11 
 92 KSP Residual norm 1.558e-11 
 93 KSP Residual norm 1.126e-11 
 94 KSP Residual norm < 1.e-11
 95 KSP Residual norm < 1.e-11
 96 KSP Residual norm < 1.e-11
 97 KSP Residual norm < 1.e-11
 98 KSP Residual norm < 1.e-11
 99 KSP Residual norm < 1.e-11
100 KSP Residual norm < 1.e-11
101 KSP Residual norm < 1.e-11
102 KSP Residual norm < 1.e-11
    Initial residual = 4.52055e-06
    Iter = 0, relRef = 1, res = 0.00212616, resAbs = 4.52055e-06, nIters = 102, maxD = 1.87264e-05
    Solving
  0 KSP Residual norm 2.80608e-06 
  1 KSP Residual norm 9.58676e-07 
  2 KSP Residual norm 8.48977e-07 
  3 KSP Residual norm 6.61984e-07 
  4 KSP Residual norm 5.48104e-07 
  5 KSP Residual norm 5.09539e-07 
  6 KSP Residual norm 3.65102e-07 
  7 KSP Residual norm 3.26154e-07 
  8 KSP Residual norm 2.61085e-07 
  9 KSP Residual norm 2.3554e-07 
 10 KSP Residual norm 2.17694e-07 
 11 KSP Residual norm 1.78017e-07 
 12 KSP Residual norm 1.61182e-07 
 13 KSP Residual norm 1.52588e-07 
 14 KSP Residual norm 1.50606e-07 
 15 KSP Residual norm 1.35457e-07 
 16 KSP Residual norm 1.31888e-07 
 17 KSP Residual norm 1.16506e-07 
 18 KSP Residual norm 1.09519e-07 
 19 KSP Residual norm 1.0708e-07 
 20 KSP Residual norm 1.1246e-07 
 21 KSP Residual norm 1.19697e-07 
 22 KSP Residual norm 1.28404e-07 
 23 KSP Residual norm 1.37285e-07 
 24 KSP Residual norm 1.42922e-07 
 25 KSP Residual norm 1.43192e-07 
 26 KSP Residual norm 1.45496e-07 
 27 KSP Residual norm 1.5268e-07 
 28 KSP Residual norm 1.6652e-07 
 29 KSP Residual norm 1.8126e-07 
 30 KSP Residual norm 1.94434e-07 
 31 KSP Residual norm 1.96535e-07 
 32 KSP Residual norm 2.18643e-07 
 33 KSP Residual norm 2.13049e-07 
 34 KSP Residual norm 2.16632e-07 
 35 KSP Residual norm 2.26182e-07 
 36 KSP Residual norm 2.35511e-07 
 37 KSP Residual norm 2.45314e-07 
 38 KSP Residual norm 2.83681e-07 
 39 KSP Residual norm 3.01715e-07 
 40 KSP Residual norm 3.07768e-07 
 41 KSP Residual norm 3.25473e-07 
 42 KSP Residual norm 3.18756e-07 
 43 KSP Residual norm 3.28256e-07 
 44 KSP Residual norm 3.42096e-07 
 45 KSP Residual norm 3.49167e-07 
 46 KSP Residual norm 3.65587e-07 
 47 KSP Residual norm 4.15166e-07 
 48 KSP Residual norm 4.70844e-07 
 49 KSP Residual norm 4.7962e-07 
 50 KSP Residual norm 4.88261e-07 
 51 KSP Residual norm 4.97979e-07 
 52 KSP Residual norm 5.18678e-07 
 53 KSP Residual norm 4.99914e-07 
 54 KSP Residual norm 4.86511e-07 
 55 KSP Residual norm 4.41427e-07 
 56 KSP Residual norm 3.51639e-07 
 57 KSP Residual norm 2.81605e-07 
 58 KSP Residual norm 2.45136e-07 
 59 KSP Residual norm 2.10783e-07 
 60 KSP Residual norm 1.87631e-07 
 61 KSP Residual norm 1.67331e-07 
 62 KSP Residual norm 1.43537e-07 
 63 KSP Residual norm 1.08019e-07 
 64 KSP Residual norm 8.5873e-08 
 65 KSP Residual norm 7.02451e-08 
 66 KSP Residual norm 6.21336e-08 
 67 KSP Residual norm 5.4747e-08 
 68 KSP Residual norm 4.7413e-08 
 69 KSP Residual norm 3.99251e-08 
 70 KSP Residual norm 3.5728e-08 
 71 KSP Residual norm 3.4371e-08 
 72 KSP Residual norm 3.17389e-08 
 73 KSP Residual norm 2.8892e-08 
 74 KSP Residual norm 2.67971e-08 
 75 KSP Residual norm 2.44436e-08 
 76 KSP Residual norm 2.2486e-08 
 77 KSP Residual norm 2.22689e-08 
 78 KSP Residual norm 2.20673e-08 
 79 KSP Residual norm 1.96517e-08 
 80 KSP Residual norm 1.71605e-08 
 81 KSP Residual norm 1.51763e-08 
 82 KSP Residual norm 1.39747e-08 
 83 KSP Residual norm 1.28233e-08 
 84 KSP Residual norm 1.2118e-08 
 85 KSP Residual norm 1.17535e-08 
 86 KSP Residual norm 1.18411e-08 
 87 KSP Residual norm 1.17824e-08 
 88 KSP Residual norm 1.11015e-08 
 89 KSP Residual norm 1.00364e-08 
 90 KSP Residual norm 9.08691e-09 
 91 KSP Residual norm 8.59517e-09 
 92 KSP Residual norm 8.67466e-09 
 93 KSP Residual norm 8.73761e-09 
 94 KSP Residual norm 8.3326e-09 
 95 KSP Residual norm 7.80388e-09 
 96 KSP Residual norm 6.95446e-09 
 97 KSP Residual norm 6.01489e-09 
 98 KSP Residual norm 5.02384e-09 
 99 KSP Residual norm 4.48194e-09 
100 KSP Residual norm 4.14876e-09 
101 KSP Residual norm 3.64977e-09 
102 KSP Residual norm 3.52751e-09 
103 KSP Residual norm 3.4901e-09 
104 KSP Residual norm 3.51442e-09 
105 KSP Residual norm 3.48959e-09 
106 KSP Residual norm 3.0602e-09 
107 KSP Residual norm 2.71457e-09 
108 KSP Residual norm 2.36402e-09 
109 KSP Residual norm 2.09477e-09 
110 KSP Residual norm 1.86984e-09 
111 KSP Residual norm 1.70569e-09 
112 KSP Residual norm 1.66823e-09 
113 KSP Residual norm 1.57063e-09 
114 KSP Residual norm 1.53444e-09 
115 KSP Residual norm 1.40518e-09 
116 KSP Residual norm 1.36546e-09 
117 KSP Residual norm 1.35624e-09 
118 KSP Residual norm 1.28573e-09 
119 KSP Residual norm 1.24623e-09 
120 KSP Residual norm 1.30158e-09 
121 KSP Residual norm 1.46588e-09 
122 KSP Residual norm 1.58957e-09 
123 KSP Residual norm 1.68702e-09 
124 KSP Residual norm 1.65465e-09 
125 KSP Residual norm 1.59822e-09 
126 KSP Residual norm 1.6008e-09 
127 KSP Residual norm 1.6289e-09 
128 KSP Residual norm 1.64672e-09 
129 KSP Residual norm 1.64898e-09 
130 KSP Residual norm 1.64447e-09 
131 KSP Residual norm 1.61557e-09 
132 KSP Residual norm 1.65823e-09 
133 KSP Residual norm 1.73132e-09 
134 KSP Residual norm 1.87014e-09 
135 KSP Residual norm 1.95219e-09 
136 KSP Residual norm 1.9907e-09 
137 KSP Residual norm 1.94894e-09 
138 KSP Residual norm 2.00647e-09 
139 KSP Residual norm 2.10383e-09 
140 KSP Residual norm 2.25633e-09 
141 KSP Residual norm 2.44946e-09 
142 KSP Residual norm 2.68703e-09 
143 KSP Residual norm 2.72965e-09 
144 KSP Residual norm 2.71637e-09 
145 KSP Residual norm 2.73942e-09 
146 KSP Residual norm 2.85648e-09 
147 KSP Residual norm 3.00559e-09 
148 KSP Residual norm 3.18251e-09 
149 KSP Residual norm 3.25128e-09 
150 KSP Residual norm 3.2816e-09 
151 KSP Residual norm 3.37592e-09 
152 KSP Residual norm 3.45906e-09 
153 KSP Residual norm 3.405e-09 
154 KSP Residual norm 3.36715e-09 
155 KSP Residual norm 3.46165e-09 
156 KSP Residual norm 3.57686e-09 
157 KSP Residual norm 3.73525e-09 
158 KSP Residual norm 3.78974e-09 
159 KSP Residual norm 3.87015e-09 
160 KSP Residual norm 3.89101e-09 
161 KSP Residual norm 4.08016e-09 
162 KSP Residual norm 4.22569e-09 
163 KSP Residual norm 4.35244e-09 
164 KSP Residual norm 4.34766e-09 
165 KSP Residual norm 4.366e-09 
166 KSP Residual norm 4.40726e-09 
167 KSP Residual norm 4.4814e-09 
168 KSP Residual norm 4.62873e-09 
169 KSP Residual norm 4.68578e-09 
170 KSP Residual norm 4.5653e-09 
171 KSP Residual norm 4.30197e-09 
172 KSP Residual norm 4.18534e-09 
173 KSP Residual norm 4.04361e-09 
174 KSP Residual norm 4.01794e-09 
175 KSP Residual norm 3.90288e-09 
176 KSP Residual norm 3.72097e-09 
177 KSP Residual norm 3.51902e-09 
178 KSP Residual norm 3.32107e-09 
179 KSP Residual norm 3.1662e-09 
180 KSP Residual norm 3.04925e-09 
181 KSP Residual norm 3.04338e-09 
182 KSP Residual norm 2.9559e-09 
183 KSP Residual norm 2.93684e-09 
184 KSP Residual norm 2.86741e-09 
185 KSP Residual norm 2.7281e-09 
186 KSP Residual norm 2.52668e-09 
187 KSP Residual norm 2.28364e-09 
188 KSP Residual norm 2.14109e-09 
189 KSP Residual norm 2.01853e-09 
190 KSP Residual norm 1.93022e-09 
191 KSP Residual norm 1.85778e-09 
192 KSP Residual norm 1.82983e-09 
193 KSP Residual norm 1.83549e-09 
194 KSP Residual norm 1.80055e-09 
195 KSP Residual norm 1.74671e-09 
196 KSP Residual norm 1.65962e-09 
197 KSP Residual norm 1.55591e-09 
198 KSP Residual norm 1.4309e-09 
199 KSP Residual norm 1.28682e-09 
200 KSP Residual norm 1.20785e-09 
201 KSP Residual norm 1.19699e-09 
202 KSP Residual norm 1.21751e-09 
203 KSP Residual norm 1.25224e-09 
204 KSP Residual norm 1.28327e-09 
205 KSP Residual norm 1.30431e-09 
206 KSP Residual norm 1.28464e-09 
207 KSP Residual norm 1.21067e-09 
208 KSP Residual norm 1.11983e-09 
209 KSP Residual norm 1.03547e-09 
210 KSP Residual norm 9.630e-10 
211 KSP Residual norm 9.113e-10 
212 KSP Residual norm 8.817e-10 
213 KSP Residual norm 8.785e-10 
214 KSP Residual norm 8.920e-10 
215 KSP Residual norm 8.970e-10 
216 KSP Residual norm 8.816e-10 
217 KSP Residual norm 8.448e-10 
218 KSP Residual norm 7.972e-10 
219 KSP Residual norm 7.599e-10 
220 KSP Residual norm 7.271e-10 
221 KSP Residual norm 6.837e-10 
222 KSP Residual norm 6.403e-10 
223 KSP Residual norm 6.040e-10 
224 KSP Residual norm 5.742e-10 
225 KSP Residual norm 5.559e-10 
226 KSP Residual norm 5.405e-10 
227 KSP Residual norm 5.291e-10 
228 KSP Residual norm 5.340e-10 
229 KSP Residual norm 5.403e-10 
230 KSP Residual norm 5.349e-10 
231 KSP Residual norm 5.285e-10 
232 KSP Residual norm 5.191e-10 
233 KSP Residual norm 5.034e-10 
234 KSP Residual norm 4.913e-10 
235 KSP Residual norm 4.786e-10 
236 KSP Residual norm 4.564e-10 
237 KSP Residual norm 4.327e-10 
238 KSP Residual norm 4.148e-10 
239 KSP Residual norm 4.023e-10 
240 KSP Residual norm 3.928e-10 
241 KSP Residual norm 3.790e-10 
242 KSP Residual norm 3.583e-10 
243 KSP Residual norm 3.366e-10 
244 KSP Residual norm 3.156e-10 
245 KSP Residual norm 2.957e-10 
246 KSP Residual norm 2.812e-10 
247 KSP Residual norm 2.732e-10 
248 KSP Residual norm 2.701e-10 
249 KSP Residual norm 2.700e-10 
250 KSP Residual norm 2.690e-10 
251 KSP Residual norm 2.641e-10 
252 KSP Residual norm 2.545e-10 
253 KSP Residual norm 2.392e-10 
254 KSP Residual norm 2.206e-10 
255 KSP Residual norm 2.054e-10 
256 KSP Residual norm 1.952e-10 
257 KSP Residual norm 1.876e-10 
258 KSP Residual norm 1.837e-10 
259 KSP Residual norm 1.850e-10 
260 KSP Residual norm 1.881e-10 
261 KSP Residual norm 1.909e-10 
262 KSP Residual norm 1.940e-10 
263 KSP Residual norm 1.957e-10 
264 KSP Residual norm 1.945e-10 
265 KSP Residual norm 1.928e-10 
266 KSP Residual norm 1.901e-10 
267 KSP Residual norm 1.826e-10 
268 KSP Residual norm 1.720e-10 
269 KSP Residual norm 1.619e-10 
270 KSP Residual norm 1.526e-10 
271 KSP Residual norm 1.453e-10 
272 KSP Residual norm 1.433e-10 
273 KSP Residual norm 1.445e-10 
274 KSP Residual norm 1.459e-10 
275 KSP Residual norm 1.491e-10 
276 KSP Residual norm 1.537e-10 
277 KSP Residual norm 1.553e-10 
278 KSP Residual norm 1.524e-10 
279 KSP Residual norm 1.466e-10 
280 KSP Residual norm 1.384e-10 
281 KSP Residual norm 1.298e-10 
282 KSP Residual norm 1.248e-10 
283 KSP Residual norm 1.235e-10 
284 KSP Residual norm 1.237e-10 
285 KSP Residual norm 1.255e-10 
286 KSP Residual norm 1.292e-10 
287 KSP Residual norm 1.326e-10 
288 KSP Residual norm 1.350e-10 
289 KSP Residual norm 1.366e-10 
290 KSP Residual norm 1.357e-10 
291 KSP Residual norm 1.320e-10 
292 KSP Residual norm 1.278e-10 
293 KSP Residual norm 1.245e-10 
294 KSP Residual norm 1.222e-10 
295 KSP Residual norm 1.215e-10 
296 KSP Residual norm 1.219e-10 
297 KSP Residual norm 1.218e-10 
298 KSP Residual norm 1.212e-10 
299 KSP Residual norm 1.211e-10 
300 KSP Residual norm 1.208e-10 
301 KSP Residual norm 1.192e-10 
302 KSP Residual norm 1.173e-10 
303 KSP Residual norm 1.165e-10 
304 KSP Residual norm 1.165e-10 
305 KSP Residual norm 1.169e-10 
306 KSP Residual norm 1.184e-10 
307 KSP Residual norm 1.203e-10 
308 KSP Residual norm 1.218e-10 
309 KSP Residual norm 1.235e-10 
310 KSP Residual norm 1.264e-10 
311 KSP Residual norm 1.295e-10 
312 KSP Residual norm 1.309e-10 
313 KSP Residual norm 1.308e-10 
314 KSP Residual norm 1.294e-10 
315 KSP Residual norm 1.266e-10 
316 KSP Residual norm 1.239e-10 
317 KSP Residual norm 1.235e-10 
318 KSP Residual norm 1.259e-10 
319 KSP Residual norm 1.296e-10 
320 KSP Residual norm 1.336e-10 
321 KSP Residual norm 1.381e-10 
322 KSP Residual norm 1.427e-10 
323 KSP Residual norm 1.460e-10 
324 KSP Residual norm 1.481e-10 
325 KSP Residual norm 1.497e-10 
326 KSP Residual norm 1.510e-10 
327 KSP Residual norm 1.514e-10 
328 KSP Residual norm 1.516e-10 
329 KSP Residual norm 1.521e-10 
330 KSP Residual norm 1.527e-10 
331 KSP Residual norm 1.533e-10 
332 KSP Residual norm 1.549e-10 
333 KSP Residual norm 1.580e-10 
334 KSP Residual norm 1.621e-10 
335 KSP Residual norm 1.666e-10 
336 KSP Residual norm 1.712e-10 
337 KSP Residual norm 1.759e-10 
338 KSP Residual norm 1.798e-10 
339 KSP Residual norm 1.825e-10 
340 KSP Residual norm 1.851e-10 
341 KSP Residual norm 1.888e-10 
342 KSP Residual norm 1.937e-10 
343 KSP Residual norm 1.989e-10 
344 KSP Residual norm 2.039e-10 
345 KSP Residual norm 2.084e-10 
346 KSP Residual norm 2.123e-10 
347 KSP Residual norm 2.158e-10 
348 KSP Residual norm 2.189e-10 
349 KSP Residual norm 2.208e-10 
350 KSP Residual norm 2.209e-10 
351 KSP Residual norm 2.197e-10 
352 KSP Residual norm 2.189e-10 
353 KSP Residual norm 2.196e-10 
354 KSP Residual norm 2.223e-10 
355 KSP Residual norm 2.274e-10 
356 KSP Residual norm 2.354e-10 
357 KSP Residual norm 2.453e-10 
358 KSP Residual norm 2.555e-10 
359 KSP Residual norm 2.654e-10 
360 KSP Residual norm 2.755e-10 
361 KSP Residual norm 2.856e-10 
362 KSP Residual norm 2.942e-10 
363 KSP Residual norm 2.999e-10 
364 KSP Residual norm 3.029e-10 
365 KSP Residual norm 3.040e-10 
366 KSP Residual norm 3.040e-10 
367 KSP Residual norm 3.029e-10 
368 KSP Residual norm 3.013e-10 
369 KSP Residual norm 2.993e-10 
370 KSP Residual norm 2.964e-10 
371 KSP Residual norm 2.925e-10 
372 KSP Residual norm 2.890e-10 
373 KSP Residual norm 2.874e-10 
374 KSP Residual norm 2.880e-10 
375 KSP Residual norm 2.896e-10 
376 KSP Residual norm 2.913e-10 
377 KSP Residual norm 2.938e-10 
378 KSP Residual norm 2.978e-10 
379 KSP Residual norm 3.031e-10 
380 KSP Residual norm 3.083e-10 
381 KSP Residual norm 3.126e-10 
382 KSP Residual norm 3.161e-10 
383 KSP Residual norm 3.189e-10 
384 KSP Residual norm 3.206e-10 
385 KSP Residual norm 3.207e-10 
386 KSP Residual norm 3.196e-10 
387 KSP Residual norm 3.184e-10 
388 KSP Residual norm 3.177e-10 
389 KSP Residual norm 3.170e-10 
390 KSP Residual norm 3.159e-10 
391 KSP Residual norm 3.146e-10 
392 KSP Residual norm 3.139e-10 
393 KSP Residual norm 3.143e-10 
394 KSP Residual norm 3.155e-10 
395 KSP Residual norm 3.169e-10 
396 KSP Residual norm 3.184e-10 
397 KSP Residual norm 3.200e-10 
398 KSP Residual norm 3.217e-10 
399 KSP Residual norm 3.232e-10 
400 KSP Residual norm 3.245e-10 
401 KSP Residual norm 3.266e-10 
402 KSP Residual norm 3.304e-10 
403 KSP Residual norm 3.357e-10 
404 KSP Residual norm 3.417e-10 
405 KSP Residual norm 3.469e-10 
406 KSP Residual norm 3.505e-10 
407 KSP Residual norm 3.526e-10 
408 KSP Residual norm 3.535e-10 
409 KSP Residual norm 3.536e-10 
410 KSP Residual norm 3.525e-10 
411 KSP Residual norm 3.503e-10 
412 KSP Residual norm 3.469e-10 
413 KSP Residual norm 3.427e-10 
414 KSP Residual norm 3.380e-10 
415 KSP Residual norm 3.328e-10 
416 KSP Residual norm 3.277e-10 
417 KSP Residual norm 3.233e-10 
418 KSP Residual norm 3.204e-10 
419 KSP Residual norm 3.192e-10 
420 KSP Residual norm 3.195e-10 
421 KSP Residual norm 3.208e-10 
422 KSP Residual norm 3.227e-10 
423 KSP Residual norm 3.253e-10 
424 KSP Residual norm 3.286e-10 
425 KSP Residual norm 3.324e-10 
426 KSP Residual norm 3.362e-10 
427 KSP Residual norm 3.391e-10 
428 KSP Residual norm 3.405e-10 
429 KSP Residual norm 3.401e-10 
430 KSP Residual norm 3.375e-10 
431 KSP Residual norm 3.328e-10 
432 KSP Residual norm 3.260e-10 
433 KSP Residual norm 3.175e-10 
434 KSP Residual norm 3.080e-10 
435 KSP Residual norm 2.983e-10 
436 KSP Residual norm 2.893e-10 
437 KSP Residual norm 2.814e-10 
438 KSP Residual norm 2.748e-10 
439 KSP Residual norm 2.698e-10 
440 KSP Residual norm 2.664e-10 
441 KSP Residual norm 2.648e-10 
442 KSP Residual norm 2.651e-10 
443 KSP Residual norm 2.673e-10 
444 KSP Residual norm 2.710e-10 
445 KSP Residual norm 2.760e-10 
446 KSP Residual norm 2.816e-10 
447 KSP Residual norm 2.870e-10 
448 KSP Residual norm 2.915e-10 
449 KSP Residual norm 2.944e-10 
450 KSP Residual norm 2.955e-10 
451 KSP Residual norm 2.945e-10 
452 KSP Residual norm 2.920e-10 
453 KSP Residual norm 2.884e-10 
454 KSP Residual norm 2.841e-10 
455 KSP Residual norm 2.794e-10 
456 KSP Residual norm 2.745e-10 
457 KSP Residual norm 2.692e-10 
458 KSP Residual norm 2.637e-10 
459 KSP Residual norm 2.580e-10 
460 KSP Residual norm 2.524e-10 
461 KSP Residual norm 2.472e-10 
462 KSP Residual norm 2.428e-10 
463 KSP Residual norm 2.395e-10 
464 KSP Residual norm 2.378e-10 
465 KSP Residual norm 2.378e-10 
466 KSP Residual norm 2.395e-10 
467 KSP Residual norm 2.422e-10 
468 KSP Residual norm 2.454e-10 
469 KSP Residual norm 2.485e-10 
470 KSP Residual norm 2.509e-10 
471 KSP Residual norm 2.527e-10 
472 KSP Residual norm 2.538e-10 
473 KSP Residual norm 2.544e-10 
474 KSP Residual norm 2.546e-10 
475 KSP Residual norm 2.546e-10 
476 KSP Residual norm 2.541e-10 
477 KSP Residual norm 2.533e-10 
478 KSP Residual norm 2.520e-10 
479 KSP Residual norm 2.502e-10 
480 KSP Residual norm 2.478e-10 
481 KSP Residual norm 2.450e-10 
482 KSP Residual norm 2.417e-10 
483 KSP Residual norm 2.384e-10 
484 KSP Residual norm 2.354e-10 
485 KSP Residual norm 2.331e-10 
486 KSP Residual norm 2.316e-10 
487 KSP Residual norm 2.310e-10 
488 KSP Residual norm 2.308e-10 
489 KSP Residual norm 2.307e-10 
490 KSP Residual norm 2.302e-10 
491 KSP Residual norm 2.290e-10 
492 KSP Residual norm 2.272e-10 
493 KSP Residual norm 2.247e-10 
494 KSP Residual norm 2.219e-10 
495 KSP Residual norm 2.190e-10 
496 KSP Residual norm 2.162e-10 
497 KSP Residual norm 2.138e-10 
498 KSP Residual norm 2.118e-10 
499 KSP Residual norm 2.103e-10 
500 KSP Residual norm 2.093e-10 
501 KSP Residual norm 2.087e-10 
502 KSP Residual norm 2.082e-10 
503 KSP Residual norm 2.078e-10 
504 KSP Residual norm 2.072e-10 
505 KSP Residual norm 2.065e-10 
506 KSP Residual norm 2.056e-10 
507 KSP Residual norm 2.046e-10 
508 KSP Residual norm 2.037e-10 
509 KSP Residual norm 2.028e-10 
510 KSP Residual norm 2.022e-10 
511 KSP Residual norm 2.016e-10 
512 KSP Residual norm 2.013e-10 
513 KSP Residual norm 2.011e-10 
514 KSP Residual norm 2.011e-10 
515 KSP Residual norm 2.012e-10 
516 KSP Residual norm 2.012e-10 
517 KSP Residual norm 2.013e-10 
518 KSP Residual norm 2.012e-10 
519 KSP Residual norm 2.010e-10 
520 KSP Residual norm 2.006e-10 
521 KSP Residual norm 2.002e-10 
522 KSP Residual norm 1.997e-10 
523 KSP Residual norm 1.993e-10 
524 KSP Residual norm 1.989e-10 
525 KSP Residual norm 1.985e-10 
526 KSP Residual norm 1.980e-10 
527 KSP Residual norm 1.973e-10 
528 KSP Residual norm 1.963e-10 
529 KSP Residual norm 1.949e-10 
530 KSP Residual norm 1.930e-10 
531 KSP Residual norm 1.908e-10 
532 KSP Residual norm 1.882e-10 
533 KSP Residual norm 1.855e-10 
534 KSP Residual norm 1.826e-10 
535 KSP Residual norm 1.796e-10 
536 KSP Residual norm 1.768e-10 
537 KSP Residual norm 1.743e-10 
538 KSP Residual norm 1.721e-10 
539 KSP Residual norm 1.702e-10 
540 KSP Residual norm 1.687e-10 
541 KSP Residual norm 1.676e-10 
542 KSP Residual norm 1.668e-10 
543 KSP Residual norm 1.662e-10 
544 KSP Residual norm 1.659e-10 
545 KSP Residual norm 1.657e-10 
546 KSP Residual norm 1.658e-10 
547 KSP Residual norm 1.660e-10 
548 KSP Residual norm 1.663e-10 
549 KSP Residual norm 1.668e-10 
550 KSP Residual norm 1.672e-10 
551 KSP Residual norm 1.676e-10 
552 KSP Residual norm 1.678e-10 
553 KSP Residual norm 1.678e-10 
554 KSP Residual norm 1.676e-10 
555 KSP Residual norm 1.672e-10 
556 KSP Residual norm 1.665e-10 
557 KSP Residual norm 1.655e-10 
558 KSP Residual norm 1.643e-10 
559 KSP Residual norm 1.629e-10 
560 KSP Residual norm 1.613e-10 
561 KSP Residual norm 1.595e-10 
562 KSP Residual norm 1.577e-10 
563 KSP Residual norm 1.559e-10 
564 KSP Residual norm 1.541e-10 
565 KSP Residual norm 1.523e-10 
566 KSP Residual norm 1.505e-10 
567 KSP Residual norm 1.487e-10 
568 KSP Residual norm 1.470e-10 
569 KSP Residual norm 1.453e-10 
570 KSP Residual norm 1.436e-10 
571 KSP Residual norm 1.421e-10 
572 KSP Residual norm 1.408e-10 
573 KSP Residual norm 1.399e-10 
574 KSP Residual norm 1.392e-10 
575 KSP Residual norm 1.388e-10 
576 KSP Residual norm 1.388e-10 
577 KSP Residual norm 1.390e-10 
578 KSP Residual norm 1.395e-10 
579 KSP Residual norm 1.400e-10 
580 KSP Residual norm 1.407e-10 
581 KSP Residual norm 1.413e-10 
582 KSP Residual norm 1.418e-10 
583 KSP Residual norm 1.422e-10 
584 KSP Residual norm 1.423e-10 
585 KSP Residual norm 1.423e-10 
586 KSP Residual norm 1.422e-10 
587 KSP Residual norm 1.419e-10 
588 KSP Residual norm 1.415e-10 
589 KSP Residual norm 1.412e-10 
590 KSP Residual norm 1.408e-10 
591 KSP Residual norm 1.404e-10 
592 KSP Residual norm 1.400e-10 
593 KSP Residual norm 1.394e-10 
594 KSP Residual norm 1.386e-10 
595 KSP Residual norm 1.377e-10 
596 KSP Residual norm 1.367e-10 
597 KSP Residual norm 1.355e-10 
598 KSP Residual norm 1.341e-10 
599 KSP Residual norm 1.328e-10 
600 KSP Residual norm 1.314e-10 
601 KSP Residual norm 1.301e-10 
602 KSP Residual norm 1.288e-10 
603 KSP Residual norm 1.276e-10 
604 KSP Residual norm 1.264e-10 
605 KSP Residual norm 1.253e-10 
606 KSP Residual norm 1.242e-10 
607 KSP Residual norm 1.231e-10 
608 KSP Residual norm 1.219e-10 
609 KSP Residual norm 1.208e-10 
610 KSP Residual norm 1.196e-10 
611 KSP Residual norm 1.184e-10 
612 KSP Residual norm 1.173e-10 
613 KSP Residual norm 1.162e-10 
614 KSP Residual norm 1.153e-10 
615 KSP Residual norm 1.146e-10 
616 KSP Residual norm 1.140e-10 
617 KSP Residual norm 1.137e-10 
618 KSP Residual norm 1.135e-10 
619 KSP Residual norm 1.135e-10 
620 KSP Residual norm 1.137e-10 
621 KSP Residual norm 1.139e-10 
622 KSP Residual norm 1.141e-10 
623 KSP Residual norm 1.142e-10 
624 KSP Residual norm 1.143e-10 
625 KSP Residual norm 1.142e-10 
626 KSP Residual norm 1.141e-10 
627 KSP Residual norm 1.139e-10 
628 KSP Residual norm 1.136e-10 
629 KSP Residual norm 1.133e-10 
630 KSP Residual norm 1.131e-10 
631 KSP Residual norm 1.129e-10 
632 KSP Residual norm 1.127e-10 
633 KSP Residual norm 1.125e-10 
634 KSP Residual norm 1.123e-10 
635 KSP Residual norm 1.121e-10 
636 KSP Residual norm 1.117e-10 
637 KSP Residual norm 1.112e-10 
638 KSP Residual norm 1.107e-10 
639 KSP Residual norm 1.100e-10 
640 KSP Residual norm 1.092e-10 
641 KSP Residual norm 1.083e-10 
642 KSP Residual norm 1.074e-10 
643 KSP Residual norm 1.065e-10 
644 KSP Residual norm 1.056e-10 
645 KSP Residual norm 1.048e-10 
646 KSP Residual norm 1.041e-10 
647 KSP Residual norm 1.034e-10 
648 KSP Residual norm 1.029e-10 
649 KSP Residual norm 1.024e-10 
650 KSP Residual norm 1.020e-10 
651 KSP Residual norm 1.016e-10 
652 KSP Residual norm 1.013e-10 
653 KSP Residual norm 1.009e-10 
654 KSP Residual norm 1.006e-10 
655 KSP Residual norm 1.003e-10 
656 KSP Residual norm 1.000e-10 
657 KSP Residual norm 9.978e-11 
658 KSP Residual norm 9.962e-11 
659 KSP Residual norm 9.952e-11 
660 KSP Residual norm 9.948e-11 
661 KSP Residual norm 9.949e-11 
662 KSP Residual norm 9.954e-11 
663 KSP Residual norm 9.961e-11 
664 KSP Residual norm 9.970e-11 
665 KSP Residual norm 9.980e-11 
666 KSP Residual norm 9.992e-11 
667 KSP Residual norm 1.001e-10 
668 KSP Residual norm 1.002e-10 
669 KSP Residual norm 1.004e-10 
670 KSP Residual norm 1.005e-10 
671 KSP Residual norm 1.007e-10 
672 KSP Residual norm 1.010e-10 
673 KSP Residual norm 1.012e-10 
674 KSP Residual norm 1.015e-10 
675 KSP Residual norm 1.018e-10 
676 KSP Residual norm 1.022e-10 
677 KSP Residual norm 1.026e-10 
678 KSP Residual norm 1.030e-10 
679 KSP Residual norm 1.034e-10 
680 KSP Residual norm 1.037e-10 
681 KSP Residual norm 1.040e-10 
682 KSP Residual norm 1.041e-10 
683 KSP Residual norm 1.040e-10 
684 KSP Residual norm 1.037e-10 
685 KSP Residual norm 1.033e-10 
686 KSP Residual norm 1.028e-10 
687 KSP Residual norm 1.022e-10 
688 KSP Residual norm 1.014e-10 
689 KSP Residual norm 1.007e-10 
690 KSP Residual norm 9.992e-11 
691 KSP Residual norm 9.918e-11 
692 KSP Residual norm 9.848e-11 
693 KSP Residual norm 9.785e-11 
694 KSP Residual norm 9.729e-11 
695 KSP Residual norm 9.683e-11 
696 KSP Residual norm 9.646e-11 
697 KSP Residual norm 9.619e-11 
698 KSP Residual norm 9.600e-11 
699 KSP Residual norm 9.587e-11 
700 KSP Residual norm 9.578e-11 
701 KSP Residual norm 9.572e-11 
702 KSP Residual norm 9.567e-11 
703 KSP Residual norm 9.562e-11 
704 KSP Residual norm 9.560e-11 
705 KSP Residual norm 9.561e-11 
706 KSP Residual norm 9.570e-11 
707 KSP Residual norm 9.589e-11 
708 KSP Residual norm 9.619e-11 
709 KSP Residual norm 9.662e-11 
710 KSP Residual norm 9.716e-11 
711 KSP Residual norm 9.781e-11 
712 KSP Residual norm 9.854e-11 
713 KSP Residual norm 9.931e-11 
714 KSP Residual norm 1.001e-10 
715 KSP Residual norm 1.008e-10 
716 KSP Residual norm 1.015e-10 
717 KSP Residual norm 1.021e-10 
718 KSP Residual norm 1.027e-10 
719 KSP Residual norm 1.032e-10 
720 KSP Residual norm 1.035e-10 
721 KSP Residual norm 1.038e-10 
722 KSP Residual norm 1.041e-10 
723 KSP Residual norm 1.043e-10 
724 KSP Residual norm 1.044e-10 
725 KSP Residual norm 1.046e-10 
726 KSP Residual norm 1.048e-10 
727 KSP Residual norm 1.049e-10 
728 KSP Residual norm 1.051e-10 
729 KSP Residual norm 1.053e-10 
730 KSP Residual norm 1.054e-10 
731 KSP Residual norm 1.056e-10 
732 KSP Residual norm 1.056e-10 
733 KSP Residual norm 1.056e-10 
734 KSP Residual norm 1.055e-10 
735 KSP Residual norm 1.053e-10 
736 KSP Residual norm 1.049e-10 
737 KSP Residual norm 1.044e-10 
738 KSP Residual norm 1.038e-10 
739 KSP Residual norm 1.031e-10 
740 KSP Residual norm 1.024e-10 
741 KSP Residual norm 1.016e-10 
742 KSP Residual norm 1.008e-10 
743 KSP Residual norm 9.996e-11 
744 KSP Residual norm 9.917e-11 
745 KSP Residual norm 9.843e-11 
746 KSP Residual norm 9.776e-11 
747 KSP Residual norm 9.718e-11 
748 KSP Residual norm 9.671e-11 
749 KSP Residual norm 9.638e-11 
750 KSP Residual norm 9.618e-11 
751 KSP Residual norm 9.612e-11 
752 KSP Residual norm 9.618e-11 
753 KSP Residual norm 9.636e-11 
754 KSP Residual norm 9.664e-11 
755 KSP Residual norm 9.698e-11 
756 KSP Residual norm 9.738e-11 
757 KSP Residual norm 9.782e-11 
758 KSP Residual norm 9.830e-11 
759 KSP Residual norm 9.882e-11 
760 KSP Residual norm 9.939e-11 
761 KSP Residual norm 1.000e-10 
762 KSP Residual norm 1.007e-10 
763 KSP Residual norm 1.014e-10 
764 KSP Residual norm 1.022e-10 
765 KSP Residual norm 1.030e-10 
766 KSP Residual norm 1.039e-10 
767 KSP Residual norm 1.047e-10 
768 KSP Residual norm 1.055e-10 
769 KSP Residual norm 1.062e-10 
770 KSP Residual norm 1.068e-10 
771 KSP Residual norm 1.074e-10 
772 KSP Residual norm 1.078e-10 
773 KSP Residual norm 1.080e-10 
774 KSP Residual norm 1.082e-10 
775 KSP Residual norm 1.082e-10 
776 KSP Residual norm 1.081e-10 
777 KSP Residual norm 1.079e-10 
778 KSP Residual norm 1.075e-10 
779 KSP Residual norm 1.071e-10 
780 KSP Residual norm 1.066e-10 
781 KSP Residual norm 1.061e-10 
782 KSP Residual norm 1.055e-10 
783 KSP Residual norm 1.048e-10 
784 KSP Residual norm 1.042e-10 
785 KSP Residual norm 1.035e-10 
786 KSP Residual norm 1.028e-10 
787 KSP Residual norm 1.021e-10 
788 KSP Residual norm 1.014e-10 
789 KSP Residual norm 1.006e-10 
790 KSP Residual norm 9.984e-11 
791 KSP Residual norm 9.905e-11 
792 KSP Residual norm 9.825e-11 
793 KSP Residual norm 9.747e-11 
794 KSP Residual norm 9.673e-11 
795 KSP Residual norm 9.605e-11 
796 KSP Residual norm 9.545e-11 
797 KSP Residual norm 9.495e-11 
798 KSP Residual norm 9.456e-11 
799 KSP Residual norm 9.430e-11 
800 KSP Residual norm 9.416e-11 
801 KSP Residual norm 9.415e-11 
802 KSP Residual norm 9.425e-11 
803 KSP Residual norm 9.446e-11 
804 KSP Residual norm 9.478e-11 
805 KSP Residual norm 9.518e-11 
806 KSP Residual norm 9.566e-11 
807 KSP Residual norm 9.619e-11 
808 KSP Residual norm 9.675e-11 
809 KSP Residual norm 9.731e-11 
810 KSP Residual norm 9.786e-11 
811 KSP Residual norm 9.836e-11 
812 KSP Residual norm 9.880e-11 
813 KSP Residual norm 9.917e-11 
814 KSP Residual norm 9.944e-11 
815 KSP Residual norm 9.963e-11 
816 KSP Residual norm 9.975e-11 
817 KSP Residual norm 9.980e-11 
818 KSP Residual norm 9.981e-11 
819 KSP Residual norm 9.978e-11 
820 KSP Residual norm 9.974e-11 
821 KSP Residual norm 9.968e-11 
822 KSP Residual norm 9.961e-11 
823 KSP Residual norm 9.953e-11 
824 KSP Residual norm 9.942e-11 
825 KSP Residual norm 9.927e-11 
826 KSP Residual norm 9.908e-11 
827 KSP Residual norm 9.882e-11 
828 KSP Residual norm 9.850e-11 
829 KSP Residual norm 9.812e-11 
830 KSP Residual norm 9.768e-11 
831 KSP Residual norm 9.717e-11 
832 KSP Residual norm 9.661e-11 
833 KSP Residual norm 9.601e-11 
834 KSP Residual norm 9.538e-11 
835 KSP Residual norm 9.473e-11 
836 KSP Residual norm 9.407e-11 
837 KSP Residual norm 9.343e-11 
838 KSP Residual norm 9.281e-11 
839 KSP Residual norm 9.225e-11 
840 KSP Residual norm 9.176e-11 
841 KSP Residual norm 9.135e-11 
842 KSP Residual norm 9.102e-11 
843 KSP Residual norm 9.079e-11 
844 KSP Residual norm 9.063e-11 
845 KSP Residual norm 9.055e-11 
846 KSP Residual norm 9.051e-11 
847 KSP Residual norm 9.050e-11 
848 KSP Residual norm 9.051e-11 
849 KSP Residual norm 9.052e-11 
850 KSP Residual norm 9.053e-11 
851 KSP Residual norm 9.054e-11 
852 KSP Residual norm 9.057e-11 
853 KSP Residual norm 9.062e-11 
854 KSP Residual norm 9.071e-11 
855 KSP Residual norm 9.084e-11 
856 KSP Residual norm 9.103e-11 
857 KSP Residual norm 9.128e-11 
858 KSP Residual norm 9.157e-11 
859 KSP Residual norm 9.191e-11 
860 KSP Residual norm 9.228e-11 
861 KSP Residual norm 9.267e-11 
862 KSP Residual norm 9.307e-11 
863 KSP Residual norm 9.349e-11 
864 KSP Residual norm 9.392e-11 
865 KSP Residual norm 9.435e-11 
866 KSP Residual norm 9.479e-11 
867 KSP Residual norm 9.523e-11 
868 KSP Residual norm 9.566e-11 
869 KSP Residual norm 9.608e-11 
870 KSP Residual norm 9.647e-11 
871 KSP Residual norm 9.682e-11 
872 KSP Residual norm 9.711e-11 
873 KSP Residual norm 9.734e-11 
874 KSP Residual norm 9.750e-11 
875 KSP Residual norm 9.760e-11 
876 KSP Residual norm 9.763e-11 
877 KSP Residual norm 9.763e-11 
878 KSP Residual norm 9.759e-11 
879 KSP Residual norm 9.752e-11 
880 KSP Residual norm 9.743e-11 
881 KSP Residual norm 9.732e-11 
882 KSP Residual norm 9.718e-11 
883 KSP Residual norm 9.699e-11 
884 KSP Residual norm 9.674e-11 
885 KSP Residual norm 9.642e-11 
886 KSP Residual norm 9.601e-11 
887 KSP Residual norm 9.553e-11 
888 KSP Residual norm 9.496e-11 
889 KSP Residual norm 9.433e-11 
890 KSP Residual norm 9.365e-11 
891 KSP Residual norm 9.294e-11 
892 KSP Residual norm 9.223e-11 
893 KSP Residual norm 9.153e-11 
894 KSP Residual norm 9.087e-11 
895 KSP Residual norm 9.028e-11 
896 KSP Residual norm 8.976e-11 
897 KSP Residual norm 8.935e-11 
898 KSP Residual norm 8.906e-11 
899 KSP Residual norm 8.890e-11 
900 KSP Residual norm 8.889e-11 
901 KSP Residual norm 8.902e-11 
902 KSP Residual norm 8.931e-11 
903 KSP Residual norm 8.973e-11 
904 KSP Residual norm 9.028e-11 
905 KSP Residual norm 9.092e-11 
906 KSP Residual norm 9.163e-11 
907 KSP Residual norm 9.238e-11 
908 KSP Residual norm 9.314e-11 
909 KSP Residual norm 9.390e-11 
910 KSP Residual norm 9.463e-11 
911 KSP Residual norm 9.534e-11 
912 KSP Residual norm 9.602e-11 
913 KSP Residual norm 9.668e-11 
914 KSP Residual norm 9.731e-11 
915 KSP Residual norm 9.793e-11 
916 KSP Residual norm 9.854e-11 
917 KSP Residual norm 9.912e-11 
918 KSP Residual norm 9.969e-11 
919 KSP Residual norm 1.002e-10 
920 KSP Residual norm 1.007e-10 
921 KSP Residual norm 1.012e-10 
922 KSP Residual norm 1.015e-10 
923 KSP Residual norm 1.019e-10 
924 KSP Residual norm 1.021e-10 
925 KSP Residual norm 1.023e-10 
926 KSP Residual norm 1.024e-10 
927 KSP Residual norm 1.025e-10 
928 KSP Residual norm 1.024e-10 
929 KSP Residual norm 1.024e-10 
930 KSP Residual norm 1.023e-10 
931 KSP Residual norm 1.021e-10 
932 KSP Residual norm 1.019e-10 
933 KSP Residual norm 1.017e-10 
934 KSP Residual norm 1.015e-10 
935 KSP Residual norm 1.013e-10 
936 KSP Residual norm 1.011e-10 
937 KSP Residual norm 1.009e-10 
938 KSP Residual norm 1.008e-10 
939 KSP Residual norm 1.008e-10 
940 KSP Residual norm 1.007e-10 
941 KSP Residual norm 1.007e-10 
942 KSP Residual norm 1.007e-10 
943 KSP Residual norm 1.007e-10 
944 KSP Residual norm 1.007e-10 
945 KSP Residual norm 1.007e-10 
946 KSP Residual norm 1.007e-10 
947 KSP Residual norm 1.006e-10 
948 KSP Residual norm 1.005e-10 
949 KSP Residual norm 1.003e-10 
950 KSP Residual norm 1.002e-10 
951 KSP Residual norm 1.001e-10 
952 KSP Residual norm 9.999e-11 
953 KSP Residual norm 9.994e-11 
954 KSP Residual norm 9.996e-11 
955 KSP Residual norm 1.001e-10 
956 KSP Residual norm 1.002e-10 
957 KSP Residual norm 1.005e-10 
958 KSP Residual norm 1.009e-10 
959 KSP Residual norm 1.014e-10 
960 KSP Residual norm 1.019e-10 
961 KSP Residual norm 1.026e-10 
962 KSP Residual norm 1.033e-10 
963 KSP Residual norm 1.042e-10 
964 KSP Residual norm 1.050e-10 
965 KSP Residual norm 1.059e-10 
966 KSP Residual norm 1.068e-10 
967 KSP Residual norm 1.077e-10 
968 KSP Residual norm 1.086e-10 
969 KSP Residual norm 1.095e-10 
970 KSP Residual norm 1.104e-10 
971 KSP Residual norm 1.112e-10 
972 KSP Residual norm 1.120e-10 
973 KSP Residual norm 1.128e-10 
974 KSP Residual norm 1.136e-10 
975 KSP Residual norm 1.143e-10 
976 KSP Residual norm 1.151e-10 
977 KSP Residual norm 1.159e-10 
978 KSP Residual norm 1.166e-10 
979 KSP Residual norm 1.173e-10 
980 KSP Residual norm 1.180e-10 
981 KSP Residual norm 1.187e-10 
982 KSP Residual norm 1.193e-10 
983 KSP Residual norm 1.199e-10 
984 KSP Residual norm 1.204e-10 
985 KSP Residual norm 1.208e-10 
986 KSP Residual norm 1.212e-10 
987 KSP Residual norm 1.214e-10 
988 KSP Residual norm 1.216e-10 
989 KSP Residual norm 1.217e-10 
990 KSP Residual norm 1.217e-10 
991 KSP Residual norm 1.216e-10 
992 KSP Residual norm 1.214e-10 
993 KSP Residual norm 1.212e-10 
994 KSP Residual norm 1.209e-10 
995 KSP Residual norm 1.206e-10 
996 KSP Residual norm 1.203e-10 
997 KSP Residual norm 1.200e-10 
998 KSP Residual norm 1.196e-10 
999 KSP Residual norm 1.193e-10 
1000 KSP Residual norm 1.190e-10 
1001 KSP Residual norm 1.187e-10 
1002 KSP Residual norm 1.184e-10 
1003 KSP Residual norm 1.182e-10 
1004 KSP Residual norm 1.178e-10 
1005 KSP Residual norm 1.175e-10 
1006 KSP Residual norm 1.171e-10 
1007 KSP Residual norm 1.167e-10 
1008 KSP Residual norm 1.162e-10 
1009 KSP Residual norm 1.156e-10 
1010 KSP Residual norm 1.150e-10 
1011 KSP Residual norm 1.144e-10 
1012 KSP Residual norm 1.138e-10 
1013 KSP Residual norm 1.132e-10 
1014 KSP Residual norm 1.127e-10 
1015 KSP Residual norm 1.122e-10 
1016 KSP Residual norm 1.119e-10 
1017 KSP Residual norm 1.117e-10 
1018 KSP Residual norm 1.116e-10 
1019 KSP Residual norm 1.117e-10 
1020 KSP Residual norm 1.120e-10 
1021 KSP Residual norm 1.125e-10 
1022 KSP Residual norm 1.132e-10 
1023 KSP Residual norm 1.141e-10 
1024 KSP Residual norm 1.152e-10 
1025 KSP Residual norm 1.164e-10 
1026 KSP Residual norm 1.177e-10 
1027 KSP Residual norm 1.192e-10 
1028 KSP Residual norm 1.209e-10 
1029 KSP Residual norm 1.226e-10 
1030 KSP Residual norm 1.243e-10 
1031 KSP Residual norm 1.262e-10 
1032 KSP Residual norm 1.280e-10 
1033 KSP Residual norm 1.298e-10 
1034 KSP Residual norm 1.316e-10 
1035 KSP Residual norm 1.334e-10 
1036 KSP Residual norm 1.351e-10 
1037 KSP Residual norm 1.368e-10 
1038 KSP Residual norm 1.383e-10 
1039 KSP Residual norm 1.398e-10 
1040 KSP Residual norm 1.411e-10 
1041 KSP Residual norm 1.424e-10 
1042 KSP Residual norm 1.434e-10 
1043 KSP Residual norm 1.443e-10 
1044 KSP Residual norm 1.451e-10 
1045 KSP Residual norm 1.456e-10 
1046 KSP Residual norm 1.459e-10 
1047 KSP Residual norm 1.460e-10 
1048 KSP Residual norm 1.459e-10 
1049 KSP Residual norm 1.456e-10 
1050 KSP Residual norm 1.450e-10 
1051 KSP Residual norm 1.441e-10 
1052 KSP Residual norm 1.431e-10 
1053 KSP Residual norm 1.419e-10 
1054 KSP Residual norm 1.405e-10 
1055 KSP Residual norm 1.390e-10 
1056 KSP Residual norm 1.373e-10 
1057 KSP Residual norm 1.356e-10 
1058 KSP Residual norm 1.338e-10 
1059 KSP Residual norm 1.320e-10 
1060 KSP Residual norm 1.302e-10 
1061 KSP Residual norm 1.284e-10 
1062 KSP Residual norm 1.268e-10 
1063 KSP Residual norm 1.252e-10 
1064 KSP Residual norm 1.238e-10 
1065 KSP Residual norm 1.226e-10 
1066 KSP Residual norm 1.215e-10 
1067 KSP Residual norm 1.207e-10 
1068 KSP Residual norm 1.202e-10 
1069 KSP Residual norm 1.198e-10 
1070 KSP Residual norm 1.198e-10 
1071 KSP Residual norm 1.199e-10 
1072 KSP Residual norm 1.203e-10 
1073 KSP Residual norm 1.209e-10 
1074 KSP Residual norm 1.217e-10 
1075 KSP Residual norm 1.226e-10 
1076 KSP Residual norm 1.237e-10 
1077 KSP Residual norm 1.249e-10 
1078 KSP Residual norm 1.263e-10 
1079 KSP Residual norm 1.277e-10 
1080 KSP Residual norm 1.293e-10 
1081 KSP Residual norm 1.309e-10 
1082 KSP Residual norm 1.325e-10 
1083 KSP Residual norm 1.342e-10 
1084 KSP Residual norm 1.359e-10 
1085 KSP Residual norm 1.377e-10 
1086 KSP Residual norm 1.394e-10 
1087 KSP Residual norm 1.411e-10 
1088 KSP Residual norm 1.428e-10 
1089 KSP Residual norm 1.444e-10 
1090 KSP Residual norm 1.459e-10 
1091 KSP Residual norm 1.473e-10 
1092 KSP Residual norm 1.487e-10 
1093 KSP Residual norm 1.499e-10 
1094 KSP Residual norm 1.509e-10 
1095 KSP Residual norm 1.518e-10 
1096 KSP Residual norm 1.526e-10 
1097 KSP Residual norm 1.532e-10 
1098 KSP Residual norm 1.537e-10 
1099 KSP Residual norm 1.541e-10 
1100 KSP Residual norm 1.543e-10 
1101 KSP Residual norm 1.544e-10 
1102 KSP Residual norm 1.543e-10 
1103 KSP Residual norm 1.542e-10 
1104 KSP Residual norm 1.539e-10 
1105 KSP Residual norm 1.536e-10 
1106 KSP Residual norm 1.532e-10 
1107 KSP Residual norm 1.527e-10 
1108 KSP Residual norm 1.521e-10 
1109 KSP Residual norm 1.515e-10 
1110 KSP Residual norm 1.509e-10 
1111 KSP Residual norm 1.502e-10 
1112 KSP Residual norm 1.495e-10 
1113 KSP Residual norm 1.488e-10 
1114 KSP Residual norm 1.480e-10 
1115 KSP Residual norm 1.472e-10 
1116 KSP Residual norm 1.464e-10 
1117 KSP Residual norm 1.456e-10 
1118 KSP Residual norm 1.447e-10 
1119 KSP Residual norm 1.438e-10 
1120 KSP Residual norm 1.428e-10 
1121 KSP Residual norm 1.419e-10 
1122 KSP Residual norm 1.409e-10 
1123 KSP Residual norm 1.399e-10 
1124 KSP Residual norm 1.390e-10 
1125 KSP Residual norm 1.381e-10 
1126 KSP Residual norm 1.373e-10 
1127 KSP Residual norm 1.366e-10 
1128 KSP Residual norm 1.360e-10 
1129 KSP Residual norm 1.354e-10 
1130 KSP Residual norm 1.350e-10 
1131 KSP Residual norm 1.348e-10 
1132 KSP Residual norm 1.346e-10 
1133 KSP Residual norm 1.346e-10 
1134 KSP Residual norm 1.348e-10 
1135 KSP Residual norm 1.350e-10 
1136 KSP Residual norm 1.354e-10 
1137 KSP Residual norm 1.360e-10 
1138 KSP Residual norm 1.366e-10 
1139 KSP Residual norm 1.374e-10 
1140 KSP Residual norm 1.383e-10 
1141 KSP Residual norm 1.392e-10 
1142 KSP Residual norm 1.403e-10 
1143 KSP Residual norm 1.413e-10 
1144 KSP Residual norm 1.425e-10 
1145 KSP Residual norm 1.437e-10 
1146 KSP Residual norm 1.449e-10 
1147 KSP Residual norm 1.461e-10 
1148 KSP Residual norm 1.473e-10 
1149 KSP Residual norm 1.485e-10 
1150 KSP Residual norm 1.498e-10 
1151 KSP Residual norm 1.509e-10 
1152 KSP Residual norm 1.521e-10 
1153 KSP Residual norm 1.533e-10 
1154 KSP Residual norm 1.544e-10 
1155 KSP Residual norm 1.555e-10 
1156 KSP Residual norm 1.565e-10 
1157 KSP Residual norm 1.575e-10 
1158 KSP Residual norm 1.585e-10 
1159 KSP Residual norm 1.594e-10 
1160 KSP Residual norm 1.603e-10 
1161 KSP Residual norm 1.611e-10 
1162 KSP Residual norm 1.618e-10 
1163 KSP Residual norm 1.625e-10 
1164 KSP Residual norm 1.631e-10 
1165 KSP Residual norm 1.637e-10 
1166 KSP Residual norm 1.641e-10 
1167 KSP Residual norm 1.645e-10 
1168 KSP Residual norm 1.648e-10 
1169 KSP Residual norm 1.651e-10 
1170 KSP Residual norm 1.653e-10 
1171 KSP Residual norm 1.654e-10 
1172 KSP Residual norm 1.655e-10 
1173 KSP Residual norm 1.655e-10 
1174 KSP Residual norm 1.655e-10 
1175 KSP Residual norm 1.654e-10 
1176 KSP Residual norm 1.653e-10 
1177 KSP Residual norm 1.652e-10 
1178 KSP Residual norm 1.651e-10 
1179 KSP Residual norm 1.650e-10 
1180 KSP Residual norm 1.648e-10 
1181 KSP Residual norm 1.646e-10 
1182 KSP Residual norm 1.644e-10 
1183 KSP Residual norm 1.642e-10 
1184 KSP Residual norm 1.640e-10 
1185 KSP Residual norm 1.637e-10 
1186 KSP Residual norm 1.635e-10 
1187 KSP Residual norm 1.632e-10 
1188 KSP Residual norm 1.629e-10 
1189 KSP Residual norm 1.626e-10 
1190 KSP Residual norm 1.622e-10 
1191 KSP Residual norm 1.619e-10 
1192 KSP Residual norm 1.615e-10 
1193 KSP Residual norm 1.612e-10 
1194 KSP Residual norm 1.608e-10 
1195 KSP Residual norm 1.604e-10 
1196 KSP Residual norm 1.601e-10 
1197 KSP Residual norm 1.597e-10 
1198 KSP Residual norm 1.595e-10 
1199 KSP Residual norm 1.592e-10 
1200 KSP Residual norm 1.590e-10 
1201 KSP Residual norm 1.589e-10 
1202 KSP Residual norm 1.588e-10 
1203 KSP Residual norm 1.588e-10 
1204 KSP Residual norm 1.589e-10 
1205 KSP Residual norm 1.590e-10 
1206 KSP Residual norm 1.593e-10 
1207 KSP Residual norm 1.596e-10 
1208 KSP Residual norm 1.600e-10 
1209 KSP Residual norm 1.604e-10 
1210 KSP Residual norm 1.610e-10 
1211 KSP Residual norm 1.616e-10 
1212 KSP Residual norm 1.623e-10 
1213 KSP Residual norm 1.631e-10 
1214 KSP Residual norm 1.640e-10 
1215 KSP Residual norm 1.649e-10 
1216 KSP Residual norm 1.659e-10 
1217 KSP Residual norm 1.670e-10 
1218 KSP Residual norm 1.682e-10 
1219 KSP Residual norm 1.693e-10 
1220 KSP Residual norm 1.706e-10 
1221 KSP Residual norm 1.718e-10 
1222 KSP Residual norm 1.731e-10 
1223 KSP Residual norm 1.744e-10 
1224 KSP Residual norm 1.757e-10 
1225 KSP Residual norm 1.770e-10 
1226 KSP Residual norm 1.783e-10 
1227 KSP Residual norm 1.796e-10 
1228 KSP Residual norm 1.808e-10 
1229 KSP Residual norm 1.820e-10 
1230 KSP Residual norm 1.831e-10 
1231 KSP Residual norm 1.842e-10 
1232 KSP Residual norm 1.853e-10 
1233 KSP Residual norm 1.862e-10 
1234 KSP Residual norm 1.871e-10 
1235 KSP Residual norm 1.880e-10 
1236 KSP Residual norm 1.887e-10 
1237 KSP Residual norm 1.893e-10 
1238 KSP Residual norm 1.898e-10 
1239 KSP Residual norm 1.902e-10 
1240 KSP Residual norm 1.905e-10 
1241 KSP Residual norm 1.907e-10 
1242 KSP Residual norm 1.908e-10 
1243 KSP Residual norm 1.908e-10 
1244 KSP Residual norm 1.906e-10 
1245 KSP Residual norm 1.904e-10 
1246 KSP Residual norm 1.901e-10 
1247 KSP Residual norm 1.896e-10 
1248 KSP Residual norm 1.892e-10 
1249 KSP Residual norm 1.886e-10 
1250 KSP Residual norm 1.881e-10 
1251 KSP Residual norm 1.874e-10 
1252 KSP Residual norm 1.868e-10 
1253 KSP Residual norm 1.861e-10 
1254 KSP Residual norm 1.854e-10 
1255 KSP Residual norm 1.847e-10 
1256 KSP Residual norm 1.840e-10 
1257 KSP Residual norm 1.834e-10 
1258 KSP Residual norm 1.827e-10 
1259 KSP Residual norm 1.820e-10 
1260 KSP Residual norm 1.814e-10 
1261 KSP Residual norm 1.808e-10 
1262 KSP Residual norm 1.802e-10 
1263 KSP Residual norm 1.796e-10 
1264 KSP Residual norm 1.791e-10 
1265 KSP Residual norm 1.787e-10 
1266 KSP Residual norm 1.783e-10 
1267 KSP Residual norm 1.779e-10 
1268 KSP Residual norm 1.776e-10 
1269 KSP Residual norm 1.773e-10 
1270 KSP Residual norm 1.771e-10 
1271 KSP Residual norm 1.769e-10 
1272 KSP Residual norm 1.768e-10 
1273 KSP Residual norm 1.767e-10 
1274 KSP Residual norm 1.766e-10 
1275 KSP Residual norm 1.766e-10 
1276 KSP Residual norm 1.767e-10 
1277 KSP Residual norm 1.768e-10 
1278 KSP Residual norm 1.769e-10 
1279 KSP Residual norm 1.771e-10 
1280 KSP Residual norm 1.773e-10 
1281 KSP Residual norm 1.776e-10 
1282 KSP Residual norm 1.779e-10 
1283 KSP Residual norm 1.783e-10 
1284 KSP Residual norm 1.787e-10 
1285 KSP Residual norm 1.792e-10 
1286 KSP Residual norm 1.798e-10 
1287 KSP Residual norm 1.804e-10 
1288 KSP Residual norm 1.811e-10 
1289 KSP Residual norm 1.819e-10 
1290 KSP Residual norm 1.827e-10 
1291 KSP Residual norm 1.835e-10 
1292 KSP Residual norm 1.843e-10 
1293 KSP Residual norm 1.852e-10 
1294 KSP Residual norm 1.861e-10 
1295 KSP Residual norm 1.870e-10 
1296 KSP Residual norm 1.879e-10 
1297 KSP Residual norm 1.888e-10 
1298 KSP Residual norm 1.897e-10 
1299 KSP Residual norm 1.906e-10 
1300 KSP Residual norm 1.915e-10 
1301 KSP Residual norm 1.924e-10 
1302 KSP Residual norm 1.933e-10 
1303 KSP Residual norm 1.942e-10 
1304 KSP Residual norm 1.950e-10 
1305 KSP Residual norm 1.959e-10 
1306 KSP Residual norm 1.967e-10 
1307 KSP Residual norm 1.975e-10 
1308 KSP Residual norm 1.983e-10 
1309 KSP Residual norm 1.991e-10 
1310 KSP Residual norm 1.998e-10 
1311 KSP Residual norm 2.005e-10 
1312 KSP Residual norm 2.011e-10 
1313 KSP Residual norm 2.016e-10 
1314 KSP Residual norm 2.021e-10 
1315 KSP Residual norm 2.025e-10 
1316 KSP Residual norm 2.029e-10 
1317 KSP Residual norm 2.031e-10 
1318 KSP Residual norm 2.033e-10 
1319 KSP Residual norm 2.033e-10 
1320 KSP Residual norm 2.033e-10 
1321 KSP Residual norm 2.032e-10 
1322 KSP Residual norm 2.030e-10 
1323 KSP Residual norm 2.027e-10 
1324 KSP Residual norm 2.023e-10 
1325 KSP Residual norm 2.018e-10 
1326 KSP Residual norm 2.012e-10 
1327 KSP Residual norm 2.005e-10 
1328 KSP Residual norm 1.997e-10 
1329 KSP Residual norm 1.989e-10 
1330 KSP Residual norm 1.980e-10 
1331 KSP Residual norm 1.970e-10 
1332 KSP Residual norm 1.960e-10 
1333 KSP Residual norm 1.949e-10 
1334 KSP Residual norm 1.938e-10 
1335 KSP Residual norm 1.927e-10 
1336 KSP Residual norm 1.916e-10 
1337 KSP Residual norm 1.904e-10 
1338 KSP Residual norm 1.893e-10 
1339 KSP Residual norm 1.883e-10 
1340 KSP Residual norm 1.872e-10 
1341 KSP Residual norm 1.863e-10 
1342 KSP Residual norm 1.854e-10 
1343 KSP Residual norm 1.847e-10 
1344 KSP Residual norm 1.840e-10 
1345 KSP Residual norm 1.835e-10 
1346 KSP Residual norm 1.831e-10 
1347 KSP Residual norm 1.827e-10 
1348 KSP Residual norm 1.825e-10 
1349 KSP Residual norm 1.825e-10 
1350 KSP Residual norm 1.825e-10 
1351 KSP Residual norm 1.826e-10 
1352 KSP Residual norm 1.828e-10 
1353 KSP Residual norm 1.832e-10 
1354 KSP Residual norm 1.835e-10 
1355 KSP Residual norm 1.840e-10 
1356 KSP Residual norm 1.845e-10 
1357 KSP Residual norm 1.851e-10 
1358 KSP Residual norm 1.858e-10 
1359 KSP Residual norm 1.865e-10 
1360 KSP Residual norm 1.872e-10 
1361 KSP Residual norm 1.880e-10 
1362 KSP Residual norm 1.888e-10 
1363 KSP Residual norm 1.896e-10 
1364 KSP Residual norm 1.905e-10 
1365 KSP Residual norm 1.914e-10 
1366 KSP Residual norm 1.923e-10 
1367 KSP Residual norm 1.933e-10 
1368 KSP Residual norm 1.942e-10 
1369 KSP Residual norm 1.952e-10 
1370 KSP Residual norm 1.962e-10 
1371 KSP Residual norm 1.972e-10 
1372 KSP Residual norm 1.982e-10 
1373 KSP Residual norm 1.993e-10 
1374 KSP Residual norm 2.003e-10 
1375 KSP Residual norm 2.013e-10 
1376 KSP Residual norm 2.024e-10 
1377 KSP Residual norm 2.034e-10 
1378 KSP Residual norm 2.045e-10 
1379 KSP Residual norm 2.056e-10 
1380 KSP Residual norm 2.066e-10 
1381 KSP Residual norm 2.077e-10 
1382 KSP Residual norm 2.087e-10 
1383 KSP Residual norm 2.098e-10 
1384 KSP Residual norm 2.108e-10 
1385 KSP Residual norm 2.119e-10 
1386 KSP Residual norm 2.129e-10 
1387 KSP Residual norm 2.138e-10 
1388 KSP Residual norm 2.148e-10 
1389 KSP Residual norm 2.156e-10 
1390 KSP Residual norm 2.164e-10 
1391 KSP Residual norm 2.172e-10 
1392 KSP Residual norm 2.178e-10 
1393 KSP Residual norm 2.184e-10 
1394 KSP Residual norm 2.189e-10 
1395 KSP Residual norm 2.192e-10 
1396 KSP Residual norm 2.195e-10 
1397 KSP Residual norm 2.197e-10 
1398 KSP Residual norm 2.198e-10 
1399 KSP Residual norm 2.197e-10 
1400 KSP Residual norm 2.196e-10 
1401 KSP Residual norm 2.194e-10 
1402 KSP Residual norm 2.191e-10 
1403 KSP Residual norm 2.187e-10 
1404 KSP Residual norm 2.183e-10 
1405 KSP Residual norm 2.178e-10 
1406 KSP Residual norm 2.172e-10 
1407 KSP Residual norm 2.166e-10 
1408 KSP Residual norm 2.160e-10 
1409 KSP Residual norm 2.153e-10 
1410 KSP Residual norm 2.146e-10 
1411 KSP Residual norm 2.139e-10 
1412 KSP Residual norm 2.132e-10 
1413 KSP Residual norm 2.125e-10 
1414 KSP Residual norm 2.118e-10 
1415 KSP Residual norm 2.111e-10 
1416 KSP Residual norm 2.104e-10 
1417 KSP Residual norm 2.098e-10 
1418 KSP Residual norm 2.091e-10 
1419 KSP Residual norm 2.085e-10 
1420 KSP Residual norm 2.079e-10 
1421 KSP Residual norm 2.074e-10 
1422 KSP Residual norm 2.069e-10 
1423 KSP Residual norm 2.065e-10 
1424 KSP Residual norm 2.061e-10 
1425 KSP Residual norm 2.057e-10 
1426 KSP Residual norm 2.054e-10 
1427 KSP Residual norm 2.052e-10 
1428 KSP Residual norm 2.050e-10 
1429 KSP Residual norm 2.048e-10 
1430 KSP Residual norm 2.047e-10 
1431 KSP Residual norm 2.046e-10 
1432 KSP Residual norm 2.046e-10 
1433 KSP Residual norm 2.046e-10 
1434 KSP Residual norm 2.046e-10 
1435 KSP Residual norm 2.047e-10 
1436 KSP Residual norm 2.048e-10 
1437 KSP Residual norm 2.049e-10 
1438 KSP Residual norm 2.050e-10 
1439 KSP Residual norm 2.052e-10 
1440 KSP Residual norm 2.054e-10 
1441 KSP Residual norm 2.057e-10 
1442 KSP Residual norm 2.060e-10 
1443 KSP Residual norm 2.063e-10 
1444 KSP Residual norm 2.067e-10 
1445 KSP Residual norm 2.072e-10 
1446 KSP Residual norm 2.077e-10 
1447 KSP Residual norm 2.082e-10 
1448 KSP Residual norm 2.088e-10 
1449 KSP Residual norm 2.095e-10 
1450 KSP Residual norm 2.102e-10 
1451 KSP Residual norm 2.110e-10 
1452 KSP Residual norm 2.118e-10 
1453 KSP Residual norm 2.127e-10 
1454 KSP Residual norm 2.136e-10 
1455 KSP Residual norm 2.146e-10 
1456 KSP Residual norm 2.156e-10 
1457 KSP Residual norm 2.166e-10 
1458 KSP Residual norm 2.176e-10 
1459 KSP Residual norm 2.187e-10 
1460 KSP Residual norm 2.197e-10 
1461 KSP Residual norm 2.208e-10 
1462 KSP Residual norm 2.218e-10 
1463 KSP Residual norm 2.228e-10 
1464 KSP Residual norm 2.238e-10 
1465 KSP Residual norm 2.248e-10 
1466 KSP Residual norm 2.257e-10 
1467 KSP Residual norm 2.266e-10 
1468 KSP Residual norm 2.275e-10 
1469 KSP Residual norm 2.284e-10 
1470 KSP Residual norm 2.292e-10 
1471 KSP Residual norm 2.300e-10 
1472 KSP Residual norm 2.308e-10 
1473 KSP Residual norm 2.316e-10 
1474 KSP Residual norm 2.324e-10 
1475 KSP Residual norm 2.331e-10 
1476 KSP Residual norm 2.338e-10 
1477 KSP Residual norm 2.345e-10 
1478 KSP Residual norm 2.352e-10 
1479 KSP Residual norm 2.359e-10 
1480 KSP Residual norm 2.366e-10 
1481 KSP Residual norm 2.373e-10 
1482 KSP Residual norm 2.380e-10 
1483 KSP Residual norm 2.387e-10 
1484 KSP Residual norm 2.394e-10 
1485 KSP Residual norm 2.401e-10 
1486 KSP Residual norm 2.408e-10 
1487 KSP Residual norm 2.415e-10 
1488 KSP Residual norm 2.422e-10 
1489 KSP Residual norm 2.429e-10 
1490 KSP Residual norm 2.436e-10 
1491 KSP Residual norm 2.442e-10 
1492 KSP Residual norm 2.449e-10 
1493 KSP Residual norm 2.456e-10 
1494 KSP Residual norm 2.462e-10 
1495 KSP Residual norm 2.469e-10 
1496 KSP Residual norm 2.475e-10 
1497 KSP Residual norm 2.480e-10 
1498 KSP Residual norm 2.486e-10 
1499 KSP Residual norm 2.490e-10 
1500 KSP Residual norm 2.495e-10 
1501 KSP Residual norm 2.498e-10 
1502 KSP Residual norm 2.502e-10 
1503 KSP Residual norm 2.504e-10 
1504 KSP Residual norm 2.506e-10 
1505 KSP Residual norm 2.507e-10 
1506 KSP Residual norm 2.507e-10 
1507 KSP Residual norm 2.506e-10 
1508 KSP Residual norm 2.505e-10 
1509 KSP Residual norm 2.502e-10 
1510 KSP Residual norm 2.499e-10 
1511 KSP Residual norm 2.496e-10 
1512 KSP Residual norm 2.491e-10 
1513 KSP Residual norm 2.486e-10 
1514 KSP Residual norm 2.480e-10 
1515 KSP Residual norm 2.474e-10 
1516 KSP Residual norm 2.468e-10 
1517 KSP Residual norm 2.461e-10 
1518 KSP Residual norm 2.453e-10 
1519 KSP Residual norm 2.446e-10 
1520 KSP Residual norm 2.438e-10 
1521 KSP Residual norm 2.430e-10 
1522 KSP Residual norm 2.423e-10 
1523 KSP Residual norm 2.415e-10 
1524 KSP Residual norm 2.408e-10 
1525 KSP Residual norm 2.401e-10 
1526 KSP Residual norm 2.394e-10 
1527 KSP Residual norm 2.387e-10 
1528 KSP Residual norm 2.381e-10 
1529 KSP Residual norm 2.376e-10 
1530 KSP Residual norm 2.370e-10 
1531 KSP Residual norm 2.366e-10 
1532 KSP Residual norm 2.362e-10 
1533 KSP Residual norm 2.358e-10 
1534 KSP Residual norm 2.355e-10 
1535 KSP Residual norm 2.353e-10 
1536 KSP Residual norm 2.351e-10 
1537 KSP Residual norm 2.350e-10 
1538 KSP Residual norm 2.349e-10 
1539 KSP Residual norm 2.349e-10 
1540 KSP Residual norm 2.349e-10 
1541 KSP Residual norm 2.350e-10 
1542 KSP Residual norm 2.351e-10 
1543 KSP Residual norm 2.353e-10 
1544 KSP Residual norm 2.355e-10 
1545 KSP Residual norm 2.358e-10 
1546 KSP Residual norm 2.361e-10 
1547 KSP Residual norm 2.365e-10 
1548 KSP Residual norm 2.369e-10 
1549 KSP Residual norm 2.373e-10 
1550 KSP Residual norm 2.378e-10 
1551 KSP Residual norm 2.383e-10 
1552 KSP Residual norm 2.388e-10 
1553 KSP Residual norm 2.394e-10 
1554 KSP Residual norm 2.400e-10 
1555 KSP Residual norm 2.406e-10 
1556 KSP Residual norm 2.413e-10 
1557 KSP Residual norm 2.420e-10 
1558 KSP Residual norm 2.427e-10 
1559 KSP Residual norm 2.435e-10 
1560 KSP Residual norm 2.443e-10 
1561 KSP Residual norm 2.451e-10 
1562 KSP Residual norm 2.460e-10 
1563 KSP Residual norm 2.469e-10 
1564 KSP Residual norm 2.478e-10 
1565 KSP Residual norm 2.488e-10 
1566 KSP Residual norm 2.498e-10 
1567 KSP Residual norm 2.508e-10 
1568 KSP Residual norm 2.519e-10 
1569 KSP Residual norm 2.530e-10 
1570 KSP Residual norm 2.542e-10 
1571 KSP Residual norm 2.554e-10 
1572 KSP Residual norm 2.566e-10 
1573 KSP Residual norm 2.578e-10 
1574 KSP Residual norm 2.591e-10 
1575 KSP Residual norm 2.604e-10 
1576 KSP Residual norm 2.618e-10 
1577 KSP Residual norm 2.631e-10 
1578 KSP Residual norm 2.645e-10 
1579 KSP Residual norm 2.658e-10 
1580 KSP Residual norm 2.672e-10 
1581 KSP Residual norm 2.686e-10 
1582 KSP Residual norm 2.699e-10 
1583 KSP Residual norm 2.713e-10 
1584 KSP Residual norm 2.726e-10 
1585 KSP Residual norm 2.739e-10 
1586 KSP Residual norm 2.752e-10 
1587 KSP Residual norm 2.765e-10 
1588 KSP Residual norm 2.777e-10 
1589 KSP Residual norm 2.789e-10 
1590 KSP Residual norm 2.800e-10 
1591 KSP Residual norm 2.811e-10 
1592 KSP Residual norm 2.822e-10 
1593 KSP Residual norm 2.832e-10 
1594 KSP Residual norm 2.842e-10 
1595 KSP Residual norm 2.851e-10 
1596 KSP Residual norm 2.859e-10 
1597 KSP Residual norm 2.867e-10 
1598 KSP Residual norm 2.875e-10 
1599 KSP Residual norm 2.882e-10 
1600 KSP Residual norm 2.888e-10 
1601 KSP Residual norm 2.894e-10 
1602 KSP Residual norm 2.899e-10 
1603 KSP Residual norm 2.904e-10 
1604 KSP Residual norm 2.908e-10 
1605 KSP Residual norm 2.912e-10 
1606 KSP Residual norm 2.915e-10 
1607 KSP Residual norm 2.918e-10 
1608 KSP Residual norm 2.921e-10 
1609 KSP Residual norm 2.923e-10 
1610 KSP Residual norm 2.925e-10 
1611 KSP Residual norm 2.926e-10 
1612 KSP Residual norm 2.927e-10 
1613 KSP Residual norm 2.928e-10 
1614 KSP Residual norm 2.928e-10 
1615 KSP Residual norm 2.929e-10 
1616 KSP Residual norm 2.929e-10 
1617 KSP Residual norm 2.928e-10 
1618 KSP Residual norm 2.928e-10 
1619 KSP Residual norm 2.927e-10 
1620 KSP Residual norm 2.927e-10 
1621 KSP Residual norm 2.926e-10 
1622 KSP Residual norm 2.925e-10 
1623 KSP Residual norm 2.923e-10 
1624 KSP Residual norm 2.922e-10 
1625 KSP Residual norm 2.921e-10 
1626 KSP Residual norm 2.919e-10 
1627 KSP Residual norm 2.918e-10 
1628 KSP Residual norm 2.916e-10 
1629 KSP Residual norm 2.914e-10 
1630 KSP Residual norm 2.912e-10 
1631 KSP Residual norm 2.910e-10 
1632 KSP Residual norm 2.907e-10 
1633 KSP Residual norm 2.905e-10 
1634 KSP Residual norm 2.902e-10 
1635 KSP Residual norm 2.899e-10 
1636 KSP Residual norm 2.896e-10 
1637 KSP Residual norm 2.892e-10 
1638 KSP Residual norm 2.889e-10 
1639 KSP Residual norm 2.885e-10 
1640 KSP Residual norm 2.881e-10 
1641 KSP Residual norm 2.877e-10 
1642 KSP Residual norm 2.873e-10 
1643 KSP Residual norm 2.868e-10 
1644 KSP Residual norm 2.863e-10 
1645 KSP Residual norm 2.858e-10 
1646 KSP Residual norm 2.853e-10 
1647 KSP Residual norm 2.848e-10 
1648 KSP Residual norm 2.843e-10 
1649 KSP Residual norm 2.837e-10 
1650 KSP Residual norm 2.832e-10 
1651 KSP Residual norm 2.826e-10 
1652 KSP Residual norm 2.821e-10 
1653 KSP Residual norm 2.815e-10 
1654 KSP Residual norm 2.810e-10 
1655 KSP Residual norm 2.805e-10 
1656 KSP Residual norm 2.800e-10 
1657 KSP Residual norm 2.795e-10 
1658 KSP Residual norm 2.791e-10 
1659 KSP Residual norm 2.787e-10 
1660 KSP Residual norm 2.783e-10 
1661 KSP Residual norm 2.779e-10 
1662 KSP Residual norm 2.776e-10 
1663 KSP Residual norm 2.773e-10 
1664 KSP Residual norm 2.771e-10 
1665 KSP Residual norm 2.769e-10 
1666 KSP Residual norm 2.768e-10 
1667 KSP Residual norm 2.767e-10 
1668 KSP Residual norm 2.767e-10 
1669 KSP Residual norm 2.767e-10 
1670 KSP Residual norm 2.768e-10 
1671 KSP Residual norm 2.769e-10 
1672 KSP Residual norm 2.771e-10 
1673 KSP Residual norm 2.773e-10 
1674 KSP Residual norm 2.776e-10 
1675 KSP Residual norm 2.780e-10 
1676 KSP Residual norm 2.783e-10 
1677 KSP Residual norm 2.788e-10 
1678 KSP Residual norm 2.793e-10 
1679 KSP Residual norm 2.798e-10 
1680 KSP Residual norm 2.804e-10 
1681 KSP Residual norm 2.810e-10 
1682 KSP Residual norm 2.817e-10 
1683 KSP Residual norm 2.824e-10 
1684 KSP Residual norm 2.831e-10 
1685 KSP Residual norm 2.839e-10 
1686 KSP Residual norm 2.847e-10 
1687 KSP Residual norm 2.855e-10 
1688 KSP Residual norm 2.863e-10 
1689 KSP Residual norm 2.872e-10 
1690 KSP Residual norm 2.881e-10 
1691 KSP Residual norm 2.890e-10 
1692 KSP Residual norm 2.899e-10 
1693 KSP Residual norm 2.908e-10 
1694 KSP Residual norm 2.918e-10 
1695 KSP Residual norm 2.928e-10 
1696 KSP Residual norm 2.937e-10 
1697 KSP Residual norm 2.947e-10 
1698 KSP Residual norm 2.957e-10 
1699 KSP Residual norm 2.966e-10 
1700 KSP Residual norm 2.976e-10 
1701 KSP Residual norm 2.986e-10 
1702 KSP Residual norm 2.996e-10 
1703 KSP Residual norm 3.005e-10 
1704 KSP Residual norm 3.015e-10 
1705 KSP Residual norm 3.025e-10 
1706 KSP Residual norm 3.034e-10 
1707 KSP Residual norm 3.044e-10 
1708 KSP Residual norm 3.054e-10 
1709 KSP Residual norm 3.063e-10 
1710 KSP Residual norm 3.072e-10 
1711 KSP Residual norm 3.082e-10 
1712 KSP Residual norm 3.091e-10 
1713 KSP Residual norm 3.100e-10 
1714 KSP Residual norm 3.109e-10 
1715 KSP Residual norm 3.119e-10 
1716 KSP Residual norm 3.128e-10 
1717 KSP Residual norm 3.137e-10 
1718 KSP Residual norm 3.145e-10 
1719 KSP Residual norm 3.154e-10 
1720 KSP Residual norm 3.163e-10 
1721 KSP Residual norm 3.171e-10 
1722 KSP Residual norm 3.180e-10 
1723 KSP Residual norm 3.188e-10 
1724 KSP Residual norm 3.196e-10 
1725 KSP Residual norm 3.204e-10 
1726 KSP Residual norm 3.212e-10 
1727 KSP Residual norm 3.220e-10 
1728 KSP Residual norm 3.227e-10 
1729 KSP Residual norm 3.234e-10 
1730 KSP Residual norm 3.241e-10 
1731 KSP Residual norm 3.248e-10 
1732 KSP Residual norm 3.254e-10 
1733 KSP Residual norm 3.260e-10 
1734 KSP Residual norm 3.266e-10 
1735 KSP Residual norm 3.272e-10 
1736 KSP Residual norm 3.277e-10 
1737 KSP Residual norm 3.282e-10 
1738 KSP Residual norm 3.286e-10 
1739 KSP Residual norm 3.290e-10 
1740 KSP Residual norm 3.294e-10 
1741 KSP Residual norm 3.297e-10 
1742 KSP Residual norm 3.300e-10 
1743 KSP Residual norm 3.302e-10 
1744 KSP Residual norm 3.304e-10 
1745 KSP Residual norm 3.306e-10 
1746 KSP Residual norm 3.307e-10 
1747 KSP Residual norm 3.308e-10 
1748 KSP Residual norm 3.308e-10 
1749 KSP Residual norm 3.308e-10 
1750 KSP Residual norm 3.307e-10 
1751 KSP Residual norm 3.306e-10 
1752 KSP Residual norm 3.304e-10 
1753 KSP Residual norm 3.302e-10 
1754 KSP Residual norm 3.300e-10 
1755 KSP Residual norm 3.297e-10 
1756 KSP Residual norm 3.294e-10 
1757 KSP Residual norm 3.291e-10 
1758 KSP Residual norm 3.287e-10 
1759 KSP Residual norm 3.283e-10 
1760 KSP Residual norm 3.279e-10 
1761 KSP Residual norm 3.274e-10 
1762 KSP Residual norm 3.269e-10 
1763 KSP Residual norm 3.264e-10 
1764 KSP Residual norm 3.258e-10 
1765 KSP Residual norm 3.253e-10 
1766 KSP Residual norm 3.247e-10 
1767 KSP Residual norm 3.241e-10 
1768 KSP Residual norm 3.235e-10 
1769 KSP Residual norm 3.228e-10 
1770 KSP Residual norm 3.222e-10 
1771 KSP Residual norm 3.216e-10 
1772 KSP Residual norm 3.209e-10 
1773 KSP Residual norm 3.202e-10 
1774 KSP Residual norm 3.196e-10 
1775 KSP Residual norm 3.189e-10 
1776 KSP Residual norm 3.182e-10 
1777 KSP Residual norm 3.176e-10 
1778 KSP Residual norm 3.169e-10 
1779 KSP Residual norm 3.163e-10 
1780 KSP Residual norm 3.156e-10 
1781 KSP Residual norm 3.150e-10 
1782 KSP Residual norm 3.144e-10 
1783 KSP Residual norm 3.137e-10 
1784 KSP Residual norm 3.131e-10 
1785 KSP Residual norm 3.125e-10 
1786 KSP Residual norm 3.120e-10 
1787 KSP Residual norm 3.114e-10 
1788 KSP Residual norm 3.108e-10 
1789 KSP Residual norm 3.103e-10 
1790 KSP Residual norm 3.098e-10 
1791 KSP Residual norm 3.093e-10 
1792 KSP Residual norm 3.088e-10 
1793 KSP Residual norm 3.083e-10 
1794 KSP Residual norm 3.079e-10 
1795 KSP Residual norm 3.074e-10 
1796 KSP Residual norm 3.070e-10 
1797 KSP Residual norm 3.066e-10 
1798 KSP Residual norm 3.062e-10 
1799 KSP Residual norm 3.059e-10 
1800 KSP Residual norm 3.055e-10 
1801 KSP Residual norm 3.052e-10 
1802 KSP Residual norm 3.049e-10 
1803 KSP Residual norm 3.046e-10 
1804 KSP Residual norm 3.043e-10 
1805 KSP Residual norm 3.041e-10 
1806 KSP Residual norm 3.038e-10 
1807 KSP Residual norm 3.036e-10 
1808 KSP Residual norm 3.034e-10 
1809 KSP Residual norm 3.032e-10 
1810 KSP Residual norm 3.031e-10 
1811 KSP Residual norm 3.029e-10 
1812 KSP Residual norm 3.028e-10 
1813 KSP Residual norm 3.027e-10 
1814 KSP Residual norm 3.026e-10 
1815 KSP Residual norm 3.026e-10 
1816 KSP Residual norm 3.025e-10 
1817 KSP Residual norm 3.025e-10 
1818 KSP Residual norm 3.025e-10 
1819 KSP Residual norm 3.026e-10 
1820 KSP Residual norm 3.027e-10 
1821 KSP Residual norm 3.028e-10 
1822 KSP Residual norm 3.029e-10 
1823 KSP Residual norm 3.030e-10 
1824 KSP Residual norm 3.032e-10 
1825 KSP Residual norm 3.034e-10 
1826 KSP Residual norm 3.037e-10 
1827 KSP Residual norm 3.039e-10 
1828 KSP Residual norm 3.042e-10 
1829 KSP Residual norm 3.045e-10 
1830 KSP Residual norm 3.049e-10 
1831 KSP Residual norm 3.053e-10 
1832 KSP Residual norm 3.057e-10 
1833 KSP Residual norm 3.061e-10 
1834 KSP Residual norm 3.066e-10 
1835 KSP Residual norm 3.071e-10 
1836 KSP Residual norm 3.076e-10 
1837 KSP Residual norm 3.081e-10 
1838 KSP Residual norm 3.087e-10 
1839 KSP Residual norm 3.093e-10 
1840 KSP Residual norm 3.099e-10 
1841 KSP Residual norm 3.105e-10 
1842 KSP Residual norm 3.112e-10 
1843 KSP Residual norm 3.118e-10 
1844 KSP Residual norm 3.125e-10 
1845 KSP Residual norm 3.132e-10 
1846 KSP Residual norm 3.139e-10 
1847 KSP Residual norm 3.146e-10 
1848 KSP Residual norm 3.153e-10 
1849 KSP Residual norm 3.161e-10 
1850 KSP Residual norm 3.168e-10 
1851 KSP Residual norm 3.175e-10 
1852 KSP Residual norm 3.183e-10 
1853 KSP Residual norm 3.190e-10 
1854 KSP Residual norm 3.198e-10 
1855 KSP Residual norm 3.205e-10 
1856 KSP Residual norm 3.212e-10 
1857 KSP Residual norm 3.220e-10 
1858 KSP Residual norm 3.227e-10 
1859 KSP Residual norm 3.234e-10 
1860 KSP Residual norm 3.241e-10 
1861 KSP Residual norm 3.248e-10 
1862 KSP Residual norm 3.255e-10 
1863 KSP Residual norm 3.261e-10 
1864 KSP Residual norm 3.268e-10 
1865 KSP Residual norm 3.274e-10 
1866 KSP Residual norm 3.280e-10 
1867 KSP Residual norm 3.286e-10 
1868 KSP Residual norm 3.292e-10 
1869 KSP Residual norm 3.297e-10 
1870 KSP Residual norm 3.303e-10 
1871 KSP Residual norm 3.308e-10 
1872 KSP Residual norm 3.313e-10 
1873 KSP Residual norm 3.317e-10 
1874 KSP Residual norm 3.322e-10 
1875 KSP Residual norm 3.326e-10 
1876 KSP Residual norm 3.330e-10 
1877 KSP Residual norm 3.334e-10 
1878 KSP Residual norm 3.337e-10 
1879 KSP Residual norm 3.340e-10 
1880 KSP Residual norm 3.343e-10 
1881 KSP Residual norm 3.346e-10 
1882 KSP Residual norm 3.349e-10 
1883 KSP Residual norm 3.351e-10 
1884 KSP Residual norm 3.353e-10 
1885 KSP Residual norm 3.355e-10 
1886 KSP Residual norm 3.357e-10 
1887 KSP Residual norm 3.359e-10 
1888 KSP Residual norm 3.360e-10 
1889 KSP Residual norm 3.361e-10 
1890 KSP Residual norm 3.362e-10 
1891 KSP Residual norm 3.363e-10 
1892 KSP Residual norm 3.364e-10 
1893 KSP Residual norm 3.365e-10 
1894 KSP Residual norm 3.365e-10 
1895 KSP Residual norm 3.365e-10 
1896 KSP Residual norm 3.366e-10 
1897 KSP Residual norm 3.366e-10 
1898 KSP Residual norm 3.366e-10 
1899 KSP Residual norm 3.366e-10 
1900 KSP Residual norm 3.365e-10 
1901 KSP Residual norm 3.365e-10 
1902 KSP Residual norm 3.365e-10 
1903 KSP Residual norm 3.364e-10 
1904 KSP Residual norm 3.364e-10 
1905 KSP Residual norm 3.363e-10 
1906 KSP Residual norm 3.362e-10 
1907 KSP Residual norm 3.361e-10 
1908 KSP Residual norm 3.360e-10 
1909 KSP Residual norm 3.359e-10 
1910 KSP Residual norm 3.358e-10 
1911 KSP Residual norm 3.357e-10 
1912 KSP Residual norm 3.356e-10 
1913 KSP Residual norm 3.354e-10 
1914 KSP Residual norm 3.353e-10 
1915 KSP Residual norm 3.351e-10 
1916 KSP Residual norm 3.350e-10 
1917 KSP Residual norm 3.348e-10 
1918 KSP Residual norm 3.346e-10 
1919 KSP Residual norm 3.343e-10 
1920 KSP Residual norm 3.341e-10 
1921 KSP Residual norm 3.339e-10 
1922 KSP Residual norm 3.336e-10 
1923 KSP Residual norm 3.334e-10 
1924 KSP Residual norm 3.331e-10 
1925 KSP Residual norm 3.328e-10 
1926 KSP Residual norm 3.324e-10 
1927 KSP Residual norm 3.321e-10 
1928 KSP Residual norm 3.318e-10 
1929 KSP Residual norm 3.314e-10 
1930 KSP Residual norm 3.310e-10 
1931 KSP Residual norm 3.306e-10 
1932 KSP Residual norm 3.302e-10 
1933 KSP Residual norm 3.298e-10 
1934 KSP Residual norm 3.294e-10 
1935 KSP Residual norm 3.289e-10 
1936 KSP Residual norm 3.284e-10 
1937 KSP Residual norm 3.280e-10 
1938 KSP Residual norm 3.275e-10 
1939 KSP Residual norm 3.270e-10 
1940 KSP Residual norm 3.265e-10 
1941 KSP Residual norm 3.260e-10 
1942 KSP Residual norm 3.255e-10 
1943 KSP Residual norm 3.249e-10 
1944 KSP Residual norm 3.244e-10 
1945 KSP Residual norm 3.239e-10 
1946 KSP Residual norm 3.234e-10 
1947 KSP Residual norm 3.228e-10 
1948 KSP Residual norm 3.223e-10 
1949 KSP Residual norm 3.218e-10 
1950 KSP Residual norm 3.213e-10 
1951 KSP Residual norm 3.207e-10 
1952 KSP Residual norm 3.202e-10 
1953 KSP Residual norm 3.197e-10 
1954 KSP Residual norm 3.192e-10 
1955 KSP Residual norm 3.187e-10 
1956 KSP Residual norm 3.182e-10 
1957 KSP Residual norm 3.178e-10 
1958 KSP Residual norm 3.173e-10 
1959 KSP Residual norm 3.168e-10 
1960 KSP Residual norm 3.164e-10 
1961 KSP Residual norm 3.160e-10 
1962 KSP Residual norm 3.156e-10 
1963 KSP Residual norm 3.152e-10 
1964 KSP Residual norm 3.148e-10 
1965 KSP Residual norm 3.144e-10 
1966 KSP Residual norm 3.141e-10 
1967 KSP Residual norm 3.137e-10 
1968 KSP Residual norm 3.134e-10 
1969 KSP Residual norm 3.131e-10 
1970 KSP Residual norm 3.128e-10 
1971 KSP Residual norm 3.126e-10 
1972 KSP Residual norm 3.123e-10 
1973 KSP Residual norm 3.121e-10 
1974 KSP Residual norm 3.119e-10 
1975 KSP Residual norm 3.116e-10 
1976 KSP Residual norm 3.115e-10 
1977 KSP Residual norm 3.113e-10 
1978 KSP Residual norm 3.111e-10 
1979 KSP Residual norm 3.110e-10 
1980 KSP Residual norm 3.108e-10 
1981 KSP Residual norm 3.107e-10 
1982 KSP Residual norm 3.106e-10 
1983 KSP Residual norm 3.105e-10 
1984 KSP Residual norm 3.104e-10 
1985 KSP Residual norm 3.103e-10 
1986 KSP Residual norm 3.103e-10 
1987 KSP Residual norm 3.102e-10 
1988 KSP Residual norm 3.101e-10 
1989 KSP Residual norm 3.101e-10 
1990 KSP Residual norm 3.101e-10 
1991 KSP Residual norm 3.100e-10 
1992 KSP Residual norm 3.100e-10 
1993 KSP Residual norm 3.100e-10 
1994 KSP Residual norm 3.099e-10 
1995 KSP Residual norm 3.099e-10 
1996 KSP Residual norm 3.099e-10 
1997 KSP Residual norm 3.099e-10 
1998 KSP Residual norm 3.098e-10 
1999 KSP Residual norm 3.098e-10 
2000 KSP Residual norm 3.098e-10 
2001 KSP Residual norm 3.098e-10 
2002 KSP Residual norm 3.097e-10 
2003 KSP Residual norm 3.097e-10 
2004 KSP Residual norm 3.097e-10 
2005 KSP Residual norm 3.096e-10 
2006 KSP Residual norm 3.096e-10 
2007 KSP Residual norm 3.096e-10 
2008 KSP Residual norm 3.095e-10 
2009 KSP Residual norm 3.095e-10 
2010 KSP Residual norm 3.095e-10 
2011 KSP Residual norm 3.094e-10 
2012 KSP Residual norm 3.094e-10 
2013 KSP Residual norm 3.094e-10 
2014 KSP Residual norm 3.093e-10 
2015 KSP Residual norm 3.093e-10 
2016 KSP Residual norm 3.092e-10 
2017 KSP Residual norm 3.092e-10 
2018 KSP Residual norm 3.092e-10 
2019 KSP Residual norm 3.091e-10 
2020 KSP Residual norm 3.091e-10 
2021 KSP Residual norm 3.091e-10 
2022 KSP Residual norm 3.091e-10 
2023 KSP Residual norm 3.091e-10 
2024 KSP Residual norm 3.090e-10 
2025 KSP Residual norm 3.090e-10 
2026 KSP Residual norm 3.090e-10 
2027 KSP Residual norm 3.090e-10 
2028 KSP Residual norm 3.090e-10 
2029 KSP Residual norm 3.090e-10 
2030 KSP Residual norm 3.091e-10 
2031 KSP Residual norm 3.091e-10 
2032 KSP Residual norm 3.091e-10 
2033 KSP Residual norm 3.091e-10 
2034 KSP Residual norm 3.092e-10 
2035 KSP Residual norm 3.092e-10 
2036 KSP Residual norm 3.093e-10 
2037 KSP Residual norm 3.093e-10 
2038 KSP Residual norm 3.094e-10 
2039 KSP Residual norm 3.095e-10 
2040 KSP Residual norm 3.095e-10 
2041 KSP Residual norm 3.096e-10 
2042 KSP Residual norm 3.097e-10 
2043 KSP Residual norm 3.098e-10 
2044 KSP Residual norm 3.098e-10 
2045 KSP Residual norm 3.099e-10 
2046 KSP Residual norm 3.100e-10 
2047 KSP Residual norm 3.101e-10 
2048 KSP Residual norm 3.102e-10 
2049 KSP Residual norm 3.103e-10 
2050 KSP Residual norm 3.104e-10 
2051 KSP Residual norm 3.105e-10 
2052 KSP Residual norm 3.106e-10 
2053 KSP Residual norm 3.107e-10 
2054 KSP Residual norm 3.107e-10 
2055 KSP Residual norm 3.108e-10 
2056 KSP Residual norm 3.109e-10 
2057 KSP Residual norm 3.110e-10 
2058 KSP Residual norm 3.111e-10 
2059 KSP Residual norm 3.112e-10 
2060 KSP Residual norm 3.112e-10 
2061 KSP Residual norm 3.113e-10 
2062 KSP Residual norm 3.114e-10 
2063 KSP Residual norm 3.114e-10 
2064 KSP Residual norm 3.115e-10 
2065 KSP Residual norm 3.115e-10 
2066 KSP Residual norm 3.116e-10 
2067 KSP Residual norm 3.116e-10 
2068 KSP Residual norm 3.116e-10 
2069 KSP Residual norm 3.116e-10 
2070 KSP Residual norm 3.116e-10 
2071 KSP Residual norm 3.116e-10 
2072 KSP Residual norm 3.116e-10 
2073 KSP Residual norm 3.115e-10 
2074 KSP Residual norm 3.115e-10 
2075 KSP Residual norm 3.114e-10 
2076 KSP Residual norm 3.114e-10 
2077 KSP Residual norm 3.113e-10 
2078 KSP Residual norm 3.112e-10 
2079 KSP Residual norm 3.111e-10 
2080 KSP Residual norm 3.109e-10 
2081 KSP Residual norm 3.108e-10 
2082 KSP Residual norm 3.106e-10 
2083 KSP Residual norm 3.105e-10 
2084 KSP Residual norm 3.103e-10 
2085 KSP Residual norm 3.101e-10 
2086 KSP Residual norm 3.099e-10 
2087 KSP Residual norm 3.096e-10 
2088 KSP Residual norm 3.094e-10 
2089 KSP Residual norm 3.091e-10 
2090 KSP Residual norm 3.089e-10 
2091 KSP Residual norm 3.086e-10 
2092 KSP Residual norm 3.083e-10 
2093 KSP Residual norm 3.080e-10 
2094 KSP Residual norm 3.077e-10 
2095 KSP Residual norm 3.073e-10 
2096 KSP Residual norm 3.070e-10 
2097 KSP Residual norm 3.066e-10 
2098 KSP Residual norm 3.062e-10 
2099 KSP Residual norm 3.059e-10 
2100 KSP Residual norm 3.055e-10 
2101 KSP Residual norm 3.051e-10 
2102 KSP Residual norm 3.047e-10 
2103 KSP Residual norm 3.043e-10 
2104 KSP Residual norm 3.038e-10 
2105 KSP Residual norm 3.034e-10 
2106 KSP Residual norm 3.029e-10 
2107 KSP Residual norm 3.025e-10 
2108 KSP Residual norm 3.020e-10 
2109 KSP Residual norm 3.016e-10 
2110 KSP Residual norm 3.011e-10 
2111 KSP Residual norm 3.006e-10 
2112 KSP Residual norm 3.001e-10 
2113 KSP Residual norm 2.996e-10 
2114 KSP Residual norm 2.991e-10 
2115 KSP Residual norm 2.986e-10 
2116 KSP Residual norm 2.980e-10 
2117 KSP Residual norm 2.975e-10 
2118 KSP Residual norm 2.970e-10 
2119 KSP Residual norm 2.964e-10 
2120 KSP Residual norm 2.958e-10 
2121 KSP Residual norm 2.953e-10 
2122 KSP Residual norm 2.947e-10 
2123 KSP Residual norm 2.941e-10 
2124 KSP Residual norm 2.935e-10 
2125 KSP Residual norm 2.928e-10 
2126 KSP Residual norm 2.922e-10 
2127 KSP Residual norm 2.916e-10 
2128 KSP Residual norm 2.909e-10 
2129 KSP Residual norm 2.903e-10 
2130 KSP Residual norm 2.896e-10 
2131 KSP Residual norm 2.889e-10 
2132 KSP Residual norm 2.882e-10 
2133 KSP Residual norm 2.875e-10 
2134 KSP Residual norm 2.868e-10 
2135 KSP Residual norm 2.861e-10 
2136 KSP Residual norm 2.853e-10 
2137 KSP Residual norm 2.846e-10 
2138 KSP Residual norm 2.838e-10 
2139 KSP Residual norm 2.831e-10 
2140 KSP Residual norm 2.823e-10 
2141 KSP Residual norm 2.816e-10 
2142 KSP Residual norm 2.808e-10 
2143 KSP Residual norm 2.800e-10 
2144 KSP Residual norm 2.793e-10 
2145 KSP Residual norm 2.785e-10 
2146 KSP Residual norm 2.777e-10 
2147 KSP Residual norm 2.769e-10 
2148 KSP Residual norm 2.762e-10 
2149 KSP Residual norm 2.754e-10 
2150 KSP Residual norm 2.746e-10 
2151 KSP Residual norm 2.739e-10 
2152 KSP Residual norm 2.731e-10 
2153 KSP Residual norm 2.724e-10 
2154 KSP Residual norm 2.717e-10 
2155 KSP Residual norm 2.710e-10 
2156 KSP Residual norm 2.702e-10 
2157 KSP Residual norm 2.695e-10 
2158 KSP Residual norm 2.689e-10 
2159 KSP Residual norm 2.682e-10 
2160 KSP Residual norm 2.675e-10 
2161 KSP Residual norm 2.669e-10 
2162 KSP Residual norm 2.662e-10 
2163 KSP Residual norm 2.656e-10 
2164 KSP Residual norm 2.650e-10 
2165 KSP Residual norm 2.645e-10 
[...]
4367 KSP Residual norm 1.45381e-07 
4368 KSP Residual norm 1.45378e-07 
4369 KSP Residual norm 1.45375e-07 
4370 KSP Residual norm 1.45373e-07 
4371 KSP Residual norm 1.45371e-07 
4372 KSP Residual norm 1.4537e-07 
4373 KSP Residual norm 1.45369e-07 
4374 KSP Residual norm 1.45369e-07 
4375 KSP Residual norm 1.45369e-07 
4376 KSP Residual norm 1.4537e-07 
4377 KSP Residual norm 1.45371e-07 
4378 KSP Residual norm 1.45373e-07 
4379 KSP Residual norm 1.45375e-07 
4380 KSP Residual norm 1.45378e-07 
4381 KSP Residual norm 1.45381e-07 
4382 KSP Residual norm 1.45385e-07 
4383 KSP Residual norm 1.45389e-07 
4384 KSP Residual norm 1.45394e-07 
4385 KSP Residual norm 1.45399e-07 
4386 KSP Residual norm 1.45405e-07 
4387 KSP Residual norm 1.45411e-07 
4388 KSP Residual norm 1.45418e-07 
4389 KSP Residual norm 1.45425e-07 
4390 KSP Residual norm 1.45433e-07 
4391 KSP Residual norm 1.45441e-07 
4392 KSP Residual norm 1.4545e-07 
4393 KSP Residual norm 1.45459e-07 
4394 KSP Residual norm 1.45469e-07 
4395 KSP Residual norm 1.45479e-07 
4396 KSP Residual norm 1.4549e-07 
4397 KSP Residual norm 1.45501e-07 
4398 KSP Residual norm 1.45513e-07 
4399 KSP Residual norm 1.45526e-07 
4400 KSP Residual norm 1.45539e-07 
4401 KSP Residual norm 1.45552e-07 
4402 KSP Residual norm 1.45566e-07 
4403 KSP Residual norm 1.45581e-07 
4404 KSP Residual norm 1.45596e-07 
4405 KSP Residual norm 1.45612e-07 
4406 KSP Residual norm 1.45628e-07 
4407 KSP Residual norm 1.45645e-07 
4408 KSP Residual norm 1.45662e-07 
4409 KSP Residual norm 1.4568e-07 
4410 KSP Residual norm 1.45698e-07 
4411 KSP Residual norm 1.45717e-07 
4412 KSP Residual norm 1.45736e-07 
4413 KSP Residual norm 1.45756e-07 
4414 KSP Residual norm 1.45777e-07 
4415 KSP Residual norm 1.45798e-07 
4416 KSP Residual norm 1.4582e-07 
4417 KSP Residual norm 1.45842e-07 
4418 KSP Residual norm 1.45864e-07 
4419 KSP Residual norm 1.45888e-07 
4420 KSP Residual norm 1.45912e-07 
4421 KSP Residual norm 1.45936e-07 
4422 KSP Residual norm 1.45961e-07 
4423 KSP Residual norm 1.45987e-07 
4424 KSP Residual norm 1.46013e-07 
4425 KSP Residual norm 1.46039e-07 
4426 KSP Residual norm 1.46067e-07 
4427 KSP Residual norm 1.46094e-07 
4428 KSP Residual norm 1.46123e-07 
4429 KSP Residual norm 1.46152e-07 
4430 KSP Residual norm 1.46181e-07 
4431 KSP Residual norm 1.46211e-07 
4432 KSP Residual norm 1.46242e-07 
4433 KSP Residual norm 1.46273e-07 
4434 KSP Residual norm 1.46305e-07 
4435 KSP Residual norm 1.46337e-07 
4436 KSP Residual norm 1.4637e-07 
4437 KSP Residual norm 1.46404e-07 
4438 KSP Residual norm 1.46438e-07 
4439 KSP Residual norm 1.46472e-07 
4440 KSP Residual norm 1.46508e-07 
4441 KSP Residual norm 1.46543e-07 
4442 KSP Residual norm 1.4658e-07 
4443 KSP Residual norm 1.46617e-07 
4444 KSP Residual norm 1.46654e-07 
4445 KSP Residual norm 1.46693e-07 
4446 KSP Residual norm 1.46731e-07 
4447 KSP Residual norm 1.46771e-07 
4448 KSP Residual norm 1.4681e-07 
4449 KSP Residual norm 1.46851e-07 
4450 KSP Residual norm 1.46892e-07 
4451 KSP Residual norm 1.46934e-07 
4452 KSP Residual norm 1.46976e-07 
4453 KSP Residual norm 1.47019e-07 
4454 KSP Residual norm 1.47062e-07 
4455 KSP Residual norm 1.47106e-07 
4456 KSP Residual norm 1.47151e-07 
4457 KSP Residual norm 1.47196e-07 
4458 KSP Residual norm 1.47242e-07 
4459 KSP Residual norm 1.47288e-07 
4460 KSP Residual norm 1.47335e-07 
4461 KSP Residual norm 1.47382e-07 
4462 KSP Residual norm 1.4743e-07 
4463 KSP Residual norm 1.47479e-07 
4464 KSP Residual norm 1.47528e-07 
4465 KSP Residual norm 1.47578e-07 
4466 KSP Residual norm 1.47629e-07 
4467 KSP Residual norm 1.4768e-07 
4468 KSP Residual norm 1.47731e-07 
4469 KSP Residual norm 1.47784e-07 
4470 KSP Residual norm 1.47836e-07 
4471 KSP Residual norm 1.4789e-07 
4472 KSP Residual norm 1.47944e-07 
4473 KSP Residual norm 1.47998e-07 
4474 KSP Residual norm 1.48053e-07 
4475 KSP Residual norm 1.48109e-07 
4476 KSP Residual norm 1.48165e-07 
4477 KSP Residual norm 1.48222e-07 
4478 KSP Residual norm 1.4828e-07 
4479 KSP Residual norm 1.48338e-07 
4480 KSP Residual norm 1.48396e-07 
4481 KSP Residual norm 1.48455e-07 
4482 KSP Residual norm 1.48515e-07 
4483 KSP Residual norm 1.48576e-07 
4484 KSP Residual norm 1.48636e-07 
4485 KSP Residual norm 1.48698e-07 
4486 KSP Residual norm 1.4876e-07 
4487 KSP Residual norm 1.48823e-07 
4488 KSP Residual norm 1.48886e-07 
4489 KSP Residual norm 1.4895e-07 
4490 KSP Residual norm 1.49014e-07 
4491 KSP Residual norm 1.49079e-07 
4492 KSP Residual norm 1.49144e-07 
4493 KSP Residual norm 1.4921e-07 
4494 KSP Residual norm 1.49277e-07 
4495 KSP Residual norm 1.49344e-07 
4496 KSP Residual norm 1.49412e-07 
4497 KSP Residual norm 1.4948e-07 
4498 KSP Residual norm 1.49549e-07 
4499 KSP Residual norm 1.49618e-07 
4500 KSP Residual norm 1.49688e-07 
4501 KSP Residual norm 1.49758e-07 
4502 KSP Residual norm 1.49829e-07 
4503 KSP Residual norm 1.49901e-07 
4504 KSP Residual norm 1.49973e-07 
4505 KSP Residual norm 1.50046e-07 
4506 KSP Residual norm 1.50119e-07 
4507 KSP Residual norm 1.50192e-07 
4508 KSP Residual norm 1.50267e-07 
4509 KSP Residual norm 1.50341e-07 
4510 KSP Residual norm 1.50416e-07 
4511 KSP Residual norm 1.50492e-07 
4512 KSP Residual norm 1.50569e-07 
4513 KSP Residual norm 1.50645e-07 
4514 KSP Residual norm 1.50723e-07 
4515 KSP Residual norm 1.508e-07 
4516 KSP Residual norm 1.50879e-07 
4517 KSP Residual norm 1.50957e-07 
4518 KSP Residual norm 1.51037e-07 
4519 KSP Residual norm 1.51117e-07 
4520 KSP Residual norm 1.51197e-07 
4521 KSP Residual norm 1.51278e-07 
4522 KSP Residual norm 1.51359e-07 
4523 KSP Residual norm 1.51441e-07 
4524 KSP Residual norm 1.51523e-07 
4525 KSP Residual norm 1.51606e-07 
4526 KSP Residual norm 1.51689e-07 
4527 KSP Residual norm 1.51772e-07 
4528 KSP Residual norm 1.51856e-07 
4529 KSP Residual norm 1.51941e-07 
4530 KSP Residual norm 1.52026e-07 
4531 KSP Residual norm 1.52111e-07 
4532 KSP Residual norm 1.52197e-07 
4533 KSP Residual norm 1.52284e-07 
4534 KSP Residual norm 1.52371e-07 
4535 KSP Residual norm 1.52458e-07 
4536 KSP Residual norm 1.52545e-07 
4537 KSP Residual norm 1.52634e-07 
4538 KSP Residual norm 1.52722e-07 
4539 KSP Residual norm 1.52811e-07 
4540 KSP Residual norm 1.529e-07 
4541 KSP Residual norm 1.5299e-07 
4542 KSP Residual norm 1.5308e-07 
4543 KSP Residual norm 1.53171e-07 
4544 KSP Residual norm 1.53262e-07 
4545 KSP Residual norm 1.53353e-07 
4546 KSP Residual norm 1.53445e-07 
4547 KSP Residual norm 1.53537e-07 
4548 KSP Residual norm 1.53629e-07 
4549 KSP Residual norm 1.53722e-07 
4550 KSP Residual norm 1.53816e-07 
4551 KSP Residual norm 1.53909e-07 
4552 KSP Residual norm 1.54003e-07 
4553 KSP Residual norm 1.54098e-07 
4554 KSP Residual norm 1.54192e-07 
4555 KSP Residual norm 1.54287e-07 
4556 KSP Residual norm 1.54383e-07 
4557 KSP Residual norm 1.54478e-07 
4558 KSP Residual norm 1.54574e-07 
4559 KSP Residual norm 1.54671e-07 
4560 KSP Residual norm 1.54768e-07 
4561 KSP Residual norm 1.54865e-07 
4562 KSP Residual norm 1.54962e-07 
4563 KSP Residual norm 1.5506e-07 
4564 KSP Residual norm 1.55158e-07 
4565 KSP Residual norm 1.55256e-07 
4566 KSP Residual norm 1.55354e-07 
4567 KSP Residual norm 1.55453e-07 
4568 KSP Residual norm 1.55552e-07 
4569 KSP Residual norm 1.55652e-07 
4570 KSP Residual norm 1.55752e-07 
4571 KSP Residual norm 1.55851e-07 
4572 KSP Residual norm 1.55952e-07 
4573 KSP Residual norm 1.56052e-07 
4574 KSP Residual norm 1.56153e-07 
4575 KSP Residual norm 1.56254e-07 
4576 KSP Residual norm 1.56355e-07 
4577 KSP Residual norm 1.56457e-07 
4578 KSP Residual norm 1.56559e-07 
4579 KSP Residual norm 1.56661e-07 
4580 KSP Residual norm 1.56763e-07 
4581 KSP Residual norm 1.56865e-07 
4582 KSP Residual norm 1.56968e-07 
4583 KSP Residual norm 1.57071e-07 
4584 KSP Residual norm 1.57174e-07 
4585 KSP Residual norm 1.57277e-07 
4586 KSP Residual norm 1.57381e-07 
4587 KSP Residual norm 1.57484e-07 
4588 KSP Residual norm 1.57588e-07 
4589 KSP Residual norm 1.57692e-07 
4590 KSP Residual norm 1.57797e-07 
4591 KSP Residual norm 1.57901e-07 
4592 KSP Residual norm 1.58006e-07 
4593 KSP Residual norm 1.58111e-07 
4594 KSP Residual norm 1.58216e-07 
4595 KSP Residual norm 1.58321e-07 
4596 KSP Residual norm 1.58426e-07 
4597 KSP Residual norm 1.58532e-07 
4598 KSP Residual norm 1.58637e-07 
4599 KSP Residual norm 1.58743e-07 
4600 KSP Residual norm 1.58849e-07 
4601 KSP Residual norm 1.58955e-07 
4602 KSP Residual norm 1.59061e-07 
4603 KSP Residual norm 1.59167e-07 
4604 KSP Residual norm 1.59274e-07 
4605 KSP Residual norm 1.59381e-07 
4606 KSP Residual norm 1.59487e-07 
4607 KSP Residual norm 1.59594e-07 
4608 KSP Residual norm 1.59701e-07 
4609 KSP Residual norm 1.59808e-07 
4610 KSP Residual norm 1.59915e-07 
4611 KSP Residual norm 1.60022e-07 
4612 KSP Residual norm 1.6013e-07 
4613 KSP Residual norm 1.60237e-07 
4614 KSP Residual norm 1.60345e-07 
4615 KSP Residual norm 1.60452e-07 
4616 KSP Residual norm 1.6056e-07 
4617 KSP Residual norm 1.60668e-07 
4618 KSP Residual norm 1.60775e-07 
4619 KSP Residual norm 1.60883e-07 
4620 KSP Residual norm 1.60991e-07 
4621 KSP Residual norm 1.61099e-07 
4622 KSP Residual norm 1.61207e-07 
4623 KSP Residual norm 1.61315e-07 
4624 KSP Residual norm 1.61424e-07 
4625 KSP Residual norm 1.61532e-07 
4626 KSP Residual norm 1.6164e-07 
4627 KSP Residual norm 1.61749e-07 
4628 KSP Residual norm 1.61857e-07 
4629 KSP Residual norm 1.61965e-07 
4630 KSP Residual norm 1.62074e-07 
4631 KSP Residual norm 1.62182e-07 
4632 KSP Residual norm 1.62291e-07 
4633 KSP Residual norm 1.62399e-07 
4634 KSP Residual norm 1.62508e-07 
4635 KSP Residual norm 1.62617e-07 
4636 KSP Residual norm 1.62725e-07 
4637 KSP Residual norm 1.62834e-07 
4638 KSP Residual norm 1.62942e-07 
4639 KSP Residual norm 1.63051e-07 
4640 KSP Residual norm 1.6316e-07 
4641 KSP Residual norm 1.63268e-07 
4642 KSP Residual norm 1.63377e-07 
4643 KSP Residual norm 1.63486e-07 
4644 KSP Residual norm 1.63594e-07 
4645 KSP Residual norm 1.63703e-07 
4646 KSP Residual norm 1.63812e-07 
4647 KSP Residual norm 1.6392e-07 
4648 KSP Residual norm 1.64029e-07 
4649 KSP Residual norm 1.64138e-07 
4650 KSP Residual norm 1.64246e-07 
4651 KSP Residual norm 1.64355e-07 
4652 KSP Residual norm 1.64463e-07 
4653 KSP Residual norm 1.64572e-07 
4654 KSP Residual norm 1.6468e-07 
4655 KSP Residual norm 1.64789e-07 
4656 KSP Residual norm 1.64897e-07 
4657 KSP Residual norm 1.65006e-07 
4658 KSP Residual norm 1.65114e-07 
4659 KSP Residual norm 1.65222e-07 
4660 KSP Residual norm 1.65331e-07 
4661 KSP Residual norm 1.65439e-07 
4662 KSP Residual norm 1.65547e-07 
4663 KSP Residual norm 1.65655e-07 
4664 KSP Residual norm 1.65763e-07 
4665 KSP Residual norm 1.65871e-07 
4666 KSP Residual norm 1.65979e-07 
4667 KSP Residual norm 1.66087e-07 
4668 KSP Residual norm 1.66195e-07 
4669 KSP Residual norm 1.66303e-07 
4670 KSP Residual norm 1.66411e-07 
4671 KSP Residual norm 1.66518e-07 
4672 KSP Residual norm 1.66626e-07 
4673 KSP Residual norm 1.66734e-07 
4674 KSP Residual norm 1.66841e-07 
4675 KSP Residual norm 1.66948e-07 
4676 KSP Residual norm 1.67056e-07 
4677 KSP Residual norm 1.67163e-07 
4678 KSP Residual norm 1.6727e-07 
4679 KSP Residual norm 1.67377e-07 
4680 KSP Residual norm 1.67484e-07 
4681 KSP Residual norm 1.67591e-07 
4682 KSP Residual norm 1.67698e-07 
4683 KSP Residual norm 1.67805e-07 
4684 KSP Residual norm 1.67912e-07 
4685 KSP Residual norm 1.68018e-07 
4686 KSP Residual norm 1.68125e-07 
4687 KSP Residual norm 1.68231e-07 
4688 KSP Residual norm 1.68338e-07 
4689 KSP Residual norm 1.68444e-07 
4690 KSP Residual norm 1.6855e-07 
4691 KSP Residual norm 1.68656e-07 
4692 KSP Residual norm 1.68762e-07 
4693 KSP Residual norm 1.68868e-07 
4694 KSP Residual norm 1.68974e-07 
4695 KSP Residual norm 1.69079e-07 
4696 KSP Residual norm 1.69185e-07 
4697 KSP Residual norm 1.6929e-07 
4698 KSP Residual norm 1.69396e-07 
4699 KSP Residual norm 1.69501e-07 
4700 KSP Residual norm 1.69606e-07 
4701 KSP Residual norm 1.69711e-07 
4702 KSP Residual norm 1.69816e-07 
4703 KSP Residual norm 1.6992e-07 
4704 KSP Residual norm 1.70025e-07 
4705 KSP Residual norm 1.70129e-07 
4706 KSP Residual norm 1.70234e-07 
4707 KSP Residual norm 1.70338e-07 
4708 KSP Residual norm 1.70442e-07 
4709 KSP Residual norm 1.70546e-07 
4710 KSP Residual norm 1.70649e-07 
4711 KSP Residual norm 1.70753e-07 
4712 KSP Residual norm 1.70857e-07 
4713 KSP Residual norm 1.7096e-07 
4714 KSP Residual norm 1.71063e-07 
4715 KSP Residual norm 1.71166e-07 
4716 KSP Residual norm 1.71269e-07 
4717 KSP Residual norm 1.71372e-07 
4718 KSP Residual norm 1.71475e-07 
4719 KSP Residual norm 1.71577e-07 
4720 KSP Residual norm 1.71679e-07 
4721 KSP Residual norm 1.71782e-07 
4722 KSP Residual norm 1.71884e-07 
4723 KSP Residual norm 1.71985e-07 
4724 KSP Residual norm 1.72087e-07 
4725 KSP Residual norm 1.72189e-07 
4726 KSP Residual norm 1.7229e-07 
4727 KSP Residual norm 1.72391e-07 
4728 KSP Residual norm 1.72492e-07 
4729 KSP Residual norm 1.72593e-07 
4730 KSP Residual norm 1.72694e-07 
4731 KSP Residual norm 1.72794e-07 
4732 KSP Residual norm 1.72894e-07 
4733 KSP Residual norm 1.72994e-07 
4734 KSP Residual norm 1.73094e-07 
4735 KSP Residual norm 1.73194e-07 
4736 KSP Residual norm 1.73294e-07 
4737 KSP Residual norm 1.73393e-07 
4738 KSP Residual norm 1.73492e-07 
4739 KSP Residual norm 1.73591e-07 
4740 KSP Residual norm 1.7369e-07 
4741 KSP Residual norm 1.73788e-07 
4742 KSP Residual norm 1.73887e-07 
4743 KSP Residual norm 1.73985e-07 
4744 KSP Residual norm 1.74083e-07 
4745 KSP Residual norm 1.74181e-07 
4746 KSP Residual norm 1.74278e-07 
4747 KSP Residual norm 1.74375e-07 
4748 KSP Residual norm 1.74473e-07 
4749 KSP Residual norm 1.74569e-07 
4750 KSP Residual norm 1.74666e-07 
4751 KSP Residual norm 1.74762e-07 
4752 KSP Residual norm 1.74859e-07 
4753 KSP Residual norm 1.74955e-07 
4754 KSP Residual norm 1.7505e-07 
4755 KSP Residual norm 1.75146e-07 
4756 KSP Residual norm 1.75241e-07 
4757 KSP Residual norm 1.75336e-07 
4758 KSP Residual norm 1.75431e-07 
4759 KSP Residual norm 1.75525e-07 
4760 KSP Residual norm 1.7562e-07 
4761 KSP Residual norm 1.75714e-07 
4762 KSP Residual norm 1.75807e-07 
4763 KSP Residual norm 1.75901e-07 
4764 KSP Residual norm 1.75994e-07 
4765 KSP Residual norm 1.76087e-07 
4766 KSP Residual norm 1.7618e-07 
4767 KSP Residual norm 1.76273e-07 
4768 KSP Residual norm 1.76365e-07 
4769 KSP Residual norm 1.76457e-07 
4770 KSP Residual norm 1.76548e-07 
4771 KSP Residual norm 1.7664e-07 
4772 KSP Residual norm 1.76731e-07 
4773 KSP Residual norm 1.76822e-07 
4774 KSP Residual norm 1.76912e-07 
4775 KSP Residual norm 1.77003e-07 
4776 KSP Residual norm 1.77093e-07 
4777 KSP Residual norm 1.77182e-07 
4778 KSP Residual norm 1.77272e-07 
4779 KSP Residual norm 1.77361e-07 
4780 KSP Residual norm 1.7745e-07 
4781 KSP Residual norm 1.77538e-07 
4782 KSP Residual norm 1.77627e-07 
4783 KSP Residual norm 1.77715e-07 
4784 KSP Residual norm 1.77802e-07 
4785 KSP Residual norm 1.7789e-07 
4786 KSP Residual norm 1.77977e-07 
4787 KSP Residual norm 1.78063e-07 
4788 KSP Residual norm 1.7815e-07 
4789 KSP Residual norm 1.78236e-07 
4790 KSP Residual norm 1.78322e-07 
4791 KSP Residual norm 1.78407e-07 
4792 KSP Residual norm 1.78492e-07 
4793 KSP Residual norm 1.78577e-07 
4794 KSP Residual norm 1.78661e-07 
4795 KSP Residual norm 1.78745e-07 
4796 KSP Residual norm 1.78829e-07 
4797 KSP Residual norm 1.78913e-07 
4798 KSP Residual norm 1.78996e-07 
4799 KSP Residual norm 1.79079e-07 
4800 KSP Residual norm 1.79161e-07 
4801 KSP Residual norm 1.79243e-07 
4802 KSP Residual norm 1.79325e-07 
4803 KSP Residual norm 1.79406e-07 
4804 KSP Residual norm 1.79488e-07 
4805 KSP Residual norm 1.79568e-07 
4806 KSP Residual norm 1.79649e-07 
4807 KSP Residual norm 1.79729e-07 
4808 KSP Residual norm 1.79808e-07 
4809 KSP Residual norm 1.79888e-07 
4810 KSP Residual norm 1.79967e-07 
4811 KSP Residual norm 1.80045e-07 
4812 KSP Residual norm 1.80123e-07 
4813 KSP Residual norm 1.80201e-07 
4814 KSP Residual norm 1.80279e-07 
4815 KSP Residual norm 1.80356e-07 
4816 KSP Residual norm 1.80433e-07 
4817 KSP Residual norm 1.80509e-07 
4818 KSP Residual norm 1.80585e-07 
4819 KSP Residual norm 1.80661e-07 
4820 KSP Residual norm 1.80736e-07 
4821 KSP Residual norm 1.80811e-07 
4822 KSP Residual norm 1.80885e-07 
4823 KSP Residual norm 1.80959e-07 
4824 KSP Residual norm 1.81033e-07 
4825 KSP Residual norm 1.81106e-07 
4826 KSP Residual norm 1.81179e-07 
4827 KSP Residual norm 1.81252e-07 
4828 KSP Residual norm 1.81324e-07 
4829 KSP Residual norm 1.81396e-07 
4830 KSP Residual norm 1.81467e-07 
4831 KSP Residual norm 1.81538e-07 
4832 KSP Residual norm 1.81608e-07 
4833 KSP Residual norm 1.81679e-07 
4834 KSP Residual norm 1.81748e-07 
4835 KSP Residual norm 1.81818e-07 
4836 KSP Residual norm 1.81887e-07 
4837 KSP Residual norm 1.81955e-07 
4838 KSP Residual norm 1.82023e-07 
4839 KSP Residual norm 1.82091e-07 
4840 KSP Residual norm 1.82158e-07 
4841 KSP Residual norm 1.82225e-07 
4842 KSP Residual norm 1.82292e-07 
4843 KSP Residual norm 1.82358e-07 
4844 KSP Residual norm 1.82424e-07 
4845 KSP Residual norm 1.82489e-07 
4846 KSP Residual norm 1.82554e-07 
4847 KSP Residual norm 1.82618e-07 
4848 KSP Residual norm 1.82682e-07 
4849 KSP Residual norm 1.82746e-07 
4850 KSP Residual norm 1.82809e-07 
4851 KSP Residual norm 1.82872e-07 
4852 KSP Residual norm 1.82934e-07 
4853 KSP Residual norm 1.82996e-07 
4854 KSP Residual norm 1.83058e-07 
4855 KSP Residual norm 1.83119e-07 
4856 KSP Residual norm 1.83179e-07 
4857 KSP Residual norm 1.8324e-07 
4858 KSP Residual norm 1.83299e-07 
4859 KSP Residual norm 1.83359e-07 
4860 KSP Residual norm 1.83418e-07 
4861 KSP Residual norm 1.83476e-07 
4862 KSP Residual norm 1.83534e-07 
4863 KSP Residual norm 1.83592e-07 
4864 KSP Residual norm 1.83649e-07 
4865 KSP Residual norm 1.83706e-07 
4866 KSP Residual norm 1.83762e-07 
4867 KSP Residual norm 1.83818e-07 
4868 KSP Residual norm 1.83874e-07 
4869 KSP Residual norm 1.83929e-07 
4870 KSP Residual norm 1.83984e-07 
4871 KSP Residual norm 1.84038e-07 
4872 KSP Residual norm 1.84092e-07 
4873 KSP Residual norm 1.84145e-07 
4874 KSP Residual norm 1.84198e-07 
4875 KSP Residual norm 1.8425e-07 
4876 KSP Residual norm 1.84302e-07 
4877 KSP Residual norm 1.84354e-07 
4878 KSP Residual norm 1.84405e-07 
4879 KSP Residual norm 1.84456e-07 
4880 KSP Residual norm 1.84506e-07 
4881 KSP Residual norm 1.84556e-07 
4882 KSP Residual norm 1.84605e-07 
4883 KSP Residual norm 1.84654e-07 
4884 KSP Residual norm 1.84703e-07 
4885 KSP Residual norm 1.84751e-07 
4886 KSP Residual norm 1.84798e-07 
4887 KSP Residual norm 1.84845e-07 
4888 KSP Residual norm 1.84892e-07 
4889 KSP Residual norm 1.84938e-07 
4890 KSP Residual norm 1.84984e-07 
4891 KSP Residual norm 1.8503e-07 
4892 KSP Residual norm 1.85075e-07 
4893 KSP Residual norm 1.85119e-07 
4894 KSP Residual norm 1.85163e-07 
4895 KSP Residual norm 1.85207e-07 
4896 KSP Residual norm 1.8525e-07 
4897 KSP Residual norm 1.85293e-07 
4898 KSP Residual norm 1.85335e-07 
4899 KSP Residual norm 1.85377e-07 
4900 KSP Residual norm 1.85418e-07 
4901 KSP Residual norm 1.85459e-07 
4902 KSP Residual norm 1.855e-07 
4903 KSP Residual norm 1.8554e-07 
4904 KSP Residual norm 1.8558e-07 
4905 KSP Residual norm 1.85619e-07 
4906 KSP Residual norm 1.85658e-07 
4907 KSP Residual norm 1.85696e-07 
4908 KSP Residual norm 1.85734e-07 
4909 KSP Residual norm 1.85771e-07 
4910 KSP Residual norm 1.85808e-07 
4911 KSP Residual norm 1.85844e-07 
4912 KSP Residual norm 1.85881e-07 
4913 KSP Residual norm 1.85916e-07 
4914 KSP Residual norm 1.85951e-07 
4915 KSP Residual norm 1.85986e-07 
4916 KSP Residual norm 1.8602e-07 
4917 KSP Residual norm 1.86054e-07 
4918 KSP Residual norm 1.86087e-07 
4919 KSP Residual norm 1.8612e-07 
4920 KSP Residual norm 1.86153e-07 
4921 KSP Residual norm 1.86185e-07 
4922 KSP Residual norm 1.86216e-07 
4923 KSP Residual norm 1.86248e-07 
