/*---------------------------------------------------------------------------*\
| =========                 |                                                 |
| \\      /  F ield         | OpenFOAM: The Open Source CFD Toolbox           |
|  \\    /   O peration     | Version:  v2012                                 |
|   \\  /    A nd           | Website:  www.openfoam.com                      |
|    \\/     M anipulation  |                                                 |
\*---------------------------------------------------------------------------*/
Build  : _7bdb509494-20201222 OPENFOAM=2012
Arch   : "LSB;label=32;scalar=64"
Exec   : solids4Foam
Date   : Jul 31 2023
Time   : 18:12:42
Host   : DESKTOP-19FOE2K
PID    : 26297
I/O    : uncollated
Case   : /home/federico/OpenFOAM/federico-v2012/run/solid-benchmarks-main/Small-strain/elastoplasticity/plateHole_Ver1/vertexCentredLinearGeometry/unstructuredTriangles/vertex.1
nProcs : 1
trapFpe: Floating point exception trapping enabled (FOAM_SIGFPE).
fileModificationChecking : Monitoring run-time modified files using timeStampMaster (fileModificationSkew 5, maxFileModificationPolls 20)
allowSystemOperations : Allowing user-supplied system call operations

// * * * * * * * * * * * * * * * * * * * * * * * * * * * * * * * * * * * * * //
Create time

--> FOAM Warning : 
    From static Foam::IOstreamOption::compressionType Foam::IOstreamOption::compressionEnum(const Foam::word&, Foam::IOstreamOption::compressionType)
    in file db/IOstreams/IOstreams/IOstreamOption.C at line 115
    Unknown compression specifier 'uncompressed', using compression off
/*---------------------------------------------------------------------------*\
|    For further information on the solids4Foam toolbox implementations,      |
|    please see the following publications:                                   |
|                                                                             |
|    P. Cardiff, A Karac, P. De Jaeger, H. Jasak, J. Nagy, A. Ivankovic,      |
|    Z. Tukovic: An open-source finite volume toolbox for solid mechanics and |
|    fluid-solid interaction simulations. arXiv:1808.10736v2, 2018, available |
|    at https://arxiv.org/abs/1808.10736.                                     |
|                                                                             |
|    Z. Tukovic, A. Karac, P. Cardiff, H. Jasak, A. Ivankovic: OpenFOAM       |
|    finite volume solver for fluid-solid interaction.  Transactions of       |
|    Famena, 42 (3), pp. 1-31, 2018, 10.21278/TOF.42301.                      |
\*---------------------------------------------------------------------------*/

Selecting physicsModel solidModel
Selecting solidModel vertexCentredLinearGeometry
Selecting dynamicFvMesh staticFvMesh
    traction is time-varying
    under-relaxation method: fixed
Creating dualMesh
    featureAngle: 30
    doNotPreserveFaceZones: 0
    concaveMultiCells: 0
Creating the mechanicalModel
Selecting mechanical law linearElasticMisesPlastic
    Plasticity is linear
Creating the dualMechanicalModel
Selecting mechanical law linearElasticMisesPlastic
    Plasticity is linear
fixedDofScale: 9.20819e+09
Creating disp function object
    region = region0
    minDist: 1e-06
SortByCompY called66
Time = 0.2

Evolving solid solver
    Assembling the matrix
    Solving
  0 KSP Residual norm 0.00160787 
  1 KSP Residual norm < 1.e-11
    Initial residual = 2.58523e-06
    Iter = 0, relRef = 1, res = 0.00160787, resAbs = 2.58523e-06, nIters = 1, maxD = 9.99651e-05
    Solving
  0 KSP Residual norm < 1.e-11
    Iter = 1, relRef = 0, res = 0, resAbs = 0, nIters = 0, maxD = 9.99651e-05
    Converged
    Max DEpsilonPEq is 0
    0 cells (0% of the cells in this material) are actively yielding

ExecutionTime = 0.13 s  ClockTime = 1 s

Time = 0.4

Evolving solid solver
    Assembling the matrix
    Solving
  0 KSP Residual norm 0.00160787 
  1 KSP Residual norm < 1.e-11
    Initial residual = 2.58523e-06
    Iter = 0, relRef = 1, res = 0.00160787, resAbs = 2.58523e-06, nIters = 1, maxD = 0.00019993
    Solving
  0 KSP Residual norm < 1.e-11
    Iter = 1, relRef = 0, res = 0, resAbs = 0, nIters = 0, maxD = 0.00019993
    Converged
    Max DEpsilonPEq is 0
    0 cells (0% of the cells in this material) are actively yielding

ExecutionTime = 0.15 s  ClockTime = 1 s

Time = 0.6

Evolving solid solver
    Assembling the matrix
    Solving
  0 KSP Residual norm 0.00160787 
  1 KSP Residual norm < 1.e-11
    Initial residual = 2.58523e-06
    Iter = 0, relRef = 1, res = 0.00160787, resAbs = 2.58523e-06, nIters = 1, maxD = 0.000299895
    Solving
  0 KSP Residual norm < 1.e-11
    Iter = 1, relRef = 0, res = 0, resAbs = 0, nIters = 0, maxD = 0.000299895
    Converged
    Max DEpsilonPEq is 0
    0 cells (0% of the cells in this material) are actively yielding

ExecutionTime = 0.16 s  ClockTime = 1 s

Time = 0.8

Evolving solid solver
    Assembling the matrix
    Solving
  0 KSP Residual norm 0.00160787 
  1 KSP Residual norm < 1.e-11
    Initial residual = 2.58523e-06
    Iter = 0, relRef = 1, res = 0.00160787, resAbs = 2.58523e-06, nIters = 1, maxD = 0.00039986
    Solving
  0 KSP Residual norm < 1.e-11
    Iter = 1, relRef = 0, res = 0, resAbs = 0, nIters = 0, maxD = 0.00039986
    Converged
    Max DEpsilonPEq is 0
    0 cells (0% of the cells in this material) are actively yielding

ExecutionTime = 0.19 s  ClockTime = 1 s

Time = 1

Evolving solid solver
    Assembling the matrix
    Solving
  0 KSP Residual norm 0.00160787 
  1 KSP Residual norm < 1.e-11
    Initial residual = 2.58523e-06
    Iter = 0, relRef = 1, res = 0.00160787, resAbs = 2.58523e-06, nIters = 1, maxD = 0.000499825
    Solving
  0 KSP Residual norm < 1.e-11
    Iter = 1, relRef = 0, res = 0, resAbs = 0, nIters = 0, maxD = 0.000499825
    Converged
    Max DEpsilonPEq is 0
    0 cells (0% of the cells in this material) are actively yielding

Max pEpsilonEq = 0.000496871
Max epsilonEq = 0.0005473
Max sigmaEq (von Mises stress) = 4.4205e+07
ExecutionTime = 0.21 s  ClockTime = 1 s

Time = 1.2

Evolving solid solver
    Assembling the matrix
    Solving
  0 KSP Residual norm 0.00160787 
  1 KSP Residual norm < 1.e-11
    Initial residual = 2.58523e-06
    Iter = 0, relRef = 1, res = 0.00160787, resAbs = 2.58523e-06, nIters = 1, maxD = 0.00059979
    Solving
  0 KSP Residual norm < 1.e-11
    Iter = 1, relRef = 0, res = 0, resAbs = 0, nIters = 0, maxD = 0.00059979
    Converged
    Max DEpsilonPEq is 0
    0 cells (0% of the cells in this material) are actively yielding

ExecutionTime = 0.24 s  ClockTime = 1 s

Time = 1.4

Evolving solid solver
    Assembling the matrix
    Solving
  0 KSP Residual norm 0.00160787 
  1 KSP Residual norm < 1.e-11
    Initial residual = 2.58523e-06
    Iter = 0, relRef = 1, res = 0.00160787, resAbs = 2.58523e-06, nIters = 1, maxD = 0.000699755
    Solving
  0 KSP Residual norm < 1.e-11
    Iter = 1, relRef = 0, res = 0, resAbs = 0, nIters = 0, maxD = 0.000699755
    Converged
    Max DEpsilonPEq is 0
    0 cells (0% of the cells in this material) are actively yielding

ExecutionTime = 0.27 s  ClockTime = 1 s

Time = 1.6

Evolving solid solver
    Assembling the matrix
    Solving
  0 KSP Residual norm 0.00160787 
  1 KSP Residual norm < 1.e-11
    Initial residual = 2.58523e-06
    Iter = 0, relRef = 1, res = 0.00160787, resAbs = 2.58523e-06, nIters = 1, maxD = 0.00079972
    Solving
  0 KSP Residual norm < 1.e-11
    Iter = 1, relRef = 0, res = 0, resAbs = 0, nIters = 0, maxD = 0.00079972
    Converged
    Max DEpsilonPEq is 0
    0 cells (0% of the cells in this material) are actively yielding

ExecutionTime = 0.29 s  ClockTime = 1 s

Time = 1.8

Evolving solid solver
    Assembling the matrix
    Solving
  0 KSP Residual norm 0.00160787 
  1 KSP Residual norm < 1.e-11
    Initial residual = 2.58523e-06
    Iter = 0, relRef = 1, res = 0.00160787, resAbs = 2.58523e-06, nIters = 1, maxD = 0.000899686
    Solving
  0 KSP Residual norm < 1.e-11
    Iter = 1, relRef = 0, res = 0, resAbs = 0, nIters = 0, maxD = 0.000899686
    Converged
    Max DEpsilonPEq is 0
    0 cells (0% of the cells in this material) are actively yielding

ExecutionTime = 0.32 s  ClockTime = 1 s

Time = 2

Evolving solid solver
    Assembling the matrix
    Solving
  0 KSP Residual norm 0.00160787 
  1 KSP Residual norm < 1.e-11
    Initial residual = 2.58523e-06
    Iter = 0, relRef = 1, res = 0.00160787, resAbs = 2.58523e-06, nIters = 1, maxD = 0.000999651
    Solving
  0 KSP Residual norm < 1.e-11
    Iter = 1, relRef = 0, res = 0, resAbs = 0, nIters = 0, maxD = 0.000999651
    Converged
    Max DEpsilonPEq is 0
    0 cells (0% of the cells in this material) are actively yielding

Max pEpsilonEq = 0.000993742
Max epsilonEq = 0.0010946
Max sigmaEq (von Mises stress) = 8.84101e+07
ExecutionTime = 0.35 s  ClockTime = 1 s

Time = 2.2

Evolving solid solver
    Assembling the matrix
    Solving
  0 KSP Residual norm 0.00160787 
  1 KSP Residual norm < 1.e-11
    Initial residual = 2.58523e-06
    Iter = 0, relRef = 1, res = 0.00160787, resAbs = 2.58523e-06, nIters = 1, maxD = 0.00109962
    Solving
  0 KSP Residual norm < 1.e-11
    Iter = 1, relRef = 0, res = 0, resAbs = 0, nIters = 0, maxD = 0.00109962
    Converged
    Max DEpsilonPEq is 0
    0 cells (0% of the cells in this material) are actively yielding

ExecutionTime = 0.37 s  ClockTime = 1 s

Time = 2.4

Evolving solid solver
    Assembling the matrix
    Solving
  0 KSP Residual norm 0.00160787 
  1 KSP Residual norm < 1.e-11
    Initial residual = 2.58523e-06
    Iter = 0, relRef = 1, res = 0.00160787, resAbs = 2.58523e-06, nIters = 1, maxD = 0.00119958
    Solving
  0 KSP Residual norm < 1.e-11
    Iter = 1, relRef = 0, res = 0, resAbs = 0, nIters = 0, maxD = 0.00119958
    Converged
    Max DEpsilonPEq is 0
    0 cells (0% of the cells in this material) are actively yielding

ExecutionTime = 0.41 s  ClockTime = 1 s

Time = 2.6

Evolving solid solver
    Assembling the matrix
    Solving
  0 KSP Residual norm 0.00160787 
  1 KSP Residual norm < 1.e-11
    Initial residual = 2.58523e-06
    Iter = 0, relRef = 1, res = 0.00160787, resAbs = 2.58523e-06, nIters = 1, maxD = 0.00129955
    Solving
  0 KSP Residual norm < 1.e-11
    Iter = 1, relRef = 0, res = 0, resAbs = 0, nIters = 0, maxD = 0.00129955
    Converged
    Max DEpsilonPEq is 0
    0 cells (0% of the cells in this material) are actively yielding

ExecutionTime = 0.42 s  ClockTime = 1 s

Time = 2.8

Evolving solid solver
    Assembling the matrix
    Solving
  0 KSP Residual norm 0.00160787 
  1 KSP Residual norm < 1.e-11
    Initial residual = 2.58523e-06
    Iter = 0, relRef = 1, res = 0.00160787, resAbs = 2.58523e-06, nIters = 1, maxD = 0.00139951
    Solving
  0 KSP Residual norm < 1.e-11
    Iter = 1, relRef = 0, res = 0, resAbs = 0, nIters = 0, maxD = 0.00139951
    Converged
    Max DEpsilonPEq is 0
    0 cells (0% of the cells in this material) are actively yielding

ExecutionTime = 0.44 s  ClockTime = 1 s

Time = 3

Evolving solid solver
    Assembling the matrix
    Solving
  0 KSP Residual norm 0.00160787 
  1 KSP Residual norm < 1.e-11
    Initial residual = 2.58523e-06
    Iter = 0, relRef = 1, res = 0.00160787, resAbs = 2.58523e-06, nIters = 1, maxD = 0.00149948
    Solving
  0 KSP Residual norm < 1.e-11
    Iter = 1, relRef = 0, res = 0, resAbs = 0, nIters = 0, maxD = 0.00149948
    Converged
    Max DEpsilonPEq is 0
    0 cells (0% of the cells in this material) are actively yielding

Max pEpsilonEq = 0.00149061
Max epsilonEq = 0.0016419
Max sigmaEq (von Mises stress) = 1.32615e+08
ExecutionTime = 0.47 s  ClockTime = 1 s

Time = 3.2

Evolving solid solver
    Assembling the matrix
    Solving
  0 KSP Residual norm 0.00160787 
  1 KSP Residual norm < 1.e-11
    Initial residual = 2.58523e-06
    Iter = 0, relRef = 1, res = 0.00160787, resAbs = 2.58523e-06, nIters = 1, maxD = 0.00159944
    Solving
  0 KSP Residual norm < 1.e-11
    Iter = 1, relRef = 0, res = 0, resAbs = 0, nIters = 0, maxD = 0.00159944
    Converged
    Max DEpsilonPEq is 0
    0 cells (0% of the cells in this material) are actively yielding

ExecutionTime = 0.5 s  ClockTime = 1 s

Time = 3.4

Evolving solid solver
    Assembling the matrix
    Solving
  0 KSP Residual norm 0.00160787 
  1 KSP Residual norm < 1.e-11
    Initial residual = 2.58523e-06
    Iter = 0, relRef = 1, res = 0.00160787, resAbs = 2.58523e-06, nIters = 1, maxD = 0.00169941
    Solving
  0 KSP Residual norm < 1.e-11
    Iter = 1, relRef = 0, res = 0, resAbs = 0, nIters = 0, maxD = 0.00169941
    Converged
    Max DEpsilonPEq is 0
    0 cells (0% of the cells in this material) are actively yielding

ExecutionTime = 0.53 s  ClockTime = 1 s

Time = 3.6

Evolving solid solver
    Assembling the matrix
    Solving
  0 KSP Residual norm 0.00160787 
  1 KSP Residual norm < 1.e-11
    Initial residual = 2.58523e-06
    Iter = 0, relRef = 1, res = 0.00160787, resAbs = 2.58523e-06, nIters = 1, maxD = 0.00179937
    Solving
  0 KSP Residual norm < 1.e-11
    Iter = 1, relRef = 0, res = 0, resAbs = 0, nIters = 0, maxD = 0.00179937
    Converged
    Max DEpsilonPEq is 0
    0 cells (0% of the cells in this material) are actively yielding

ExecutionTime = 0.55 s  ClockTime = 2 s

Time = 3.8

Evolving solid solver
    Assembling the matrix
    Solving
  0 KSP Residual norm 0.00160787 
  1 KSP Residual norm < 1.e-11
    Initial residual = 2.58523e-06
    Iter = 0, relRef = 1, res = 0.00160787, resAbs = 2.58523e-06, nIters = 1, maxD = 0.00189934
    Solving
  0 KSP Residual norm < 1.e-11
    Iter = 1, relRef = 0, res = 0, resAbs = 0, nIters = 0, maxD = 0.00189934
    Converged
    Max DEpsilonPEq is 0
    0 cells (0% of the cells in this material) are actively yielding

ExecutionTime = 0.56 s  ClockTime = 2 s

Time = 4

Evolving solid solver
    Assembling the matrix
    Solving
  0 KSP Residual norm 0.00160787 
  1 KSP Residual norm < 1.e-11
    Initial residual = 2.58523e-06
    Iter = 0, relRef = 1, res = 0.00160787, resAbs = 2.58523e-06, nIters = 1, maxD = 0.0019993
    Solving
  0 KSP Residual norm < 1.e-11
    Iter = 1, relRef = 0, res = 0, resAbs = 0, nIters = 0, maxD = 0.0019993
    Converged
    Max DEpsilonPEq is 0
    0 cells (0% of the cells in this material) are actively yielding

Max pEpsilonEq = 0.00198748
Max epsilonEq = 0.0021892
Max sigmaEq (von Mises stress) = 1.7682e+08
ExecutionTime = 0.58 s  ClockTime = 2 s

Time = 4.2

Evolving solid solver
    Assembling the matrix
    Solving
  0 KSP Residual norm 0.00160787 
  1 KSP Residual norm < 1.e-11
    Initial residual = 2.58523e-06
    Iter = 0, relRef = 1, res = 0.00160787, resAbs = 2.58523e-06, nIters = 1, maxD = 0.00209927
    Solving
  0 KSP Residual norm < 1.e-11
    Iter = 1, relRef = 0, res = 0, resAbs = 0, nIters = 0, maxD = 0.00209927
    Converged
    Max DEpsilonPEq is 0
    0 cells (0% of the cells in this material) are actively yielding

ExecutionTime = 0.61 s  ClockTime = 2 s

Time = 4.4

Evolving solid solver
    Assembling the matrix
    Solving
  0 KSP Residual norm 0.00160787 
  1 KSP Residual norm < 1.e-11
    Initial residual = 2.58523e-06
    Iter = 0, relRef = 1, res = 0.00160787, resAbs = 2.58523e-06, nIters = 1, maxD = 0.00219923
    Solving
  0 KSP Residual norm < 1.e-11
    Iter = 1, relRef = 0, res = 0, resAbs = 0, nIters = 0, maxD = 0.00219923
    Converged
    Max DEpsilonPEq is 0
    0 cells (0% of the cells in this material) are actively yielding

ExecutionTime = 0.64 s  ClockTime = 2 s

Time = 4.6

Evolving solid solver
    Assembling the matrix
    Solving
  0 KSP Residual norm 0.00160787 
  1 KSP Residual norm < 1.e-11
    Initial residual = 2.58523e-06
    Iter = 0, relRef = 1, res = 0.00160787, resAbs = 2.58523e-06, nIters = 1, maxD = 0.0022992
    Solving
  0 KSP Residual norm < 1.e-11
    Iter = 1, relRef = 0, res = 0, resAbs = 0, nIters = 0, maxD = 0.0022992
    Converged
    Max DEpsilonPEq is 0
    0 cells (0% of the cells in this material) are actively yielding

ExecutionTime = 0.66 s  ClockTime = 2 s

Time = 4.8

Evolving solid solver
    Assembling the matrix
    Solving
  0 KSP Residual norm 0.00160787 
  1 KSP Residual norm < 1.e-11
    Initial residual = 2.58523e-06
    Iter = 0, relRef = 1, res = 0.00160787, resAbs = 2.58523e-06, nIters = 1, maxD = 0.00239916
    Solving
  0 KSP Residual norm < 1.e-11
    Iter = 1, relRef = 0, res = 0, resAbs = 0, nIters = 0, maxD = 0.00239916
    Converged
    Max DEpsilonPEq is 0
    0 cells (0% of the cells in this material) are actively yielding

ExecutionTime = 0.69 s  ClockTime = 2 s

Time = 5

Evolving solid solver
    Assembling the matrix
    Solving
  0 KSP Residual norm 0.00160787 
  1 KSP Residual norm < 1.e-11
    Initial residual = 2.58523e-06
    Iter = 0, relRef = 1, res = 0.00160787, resAbs = 2.58523e-06, nIters = 1, maxD = 0.00249913
    Solving
  0 KSP Residual norm < 1.e-11
    Iter = 1, relRef = 0, res = 0, resAbs = 0, nIters = 0, maxD = 0.00249913
    Converged
    Max DEpsilonPEq is 0
    0 cells (0% of the cells in this material) are actively yielding

Max pEpsilonEq = 0.00248435
Max epsilonEq = 0.0027365
Max sigmaEq (von Mises stress) = 2.21025e+08
ExecutionTime = 0.71 s  ClockTime = 2 s

Time = 5.2

Evolving solid solver
    Assembling the matrix
    Solving
  0 KSP Residual norm 0.00160787 
  1 KSP Residual norm < 1.e-11
    Initial residual = 2.58523e-06
    Iter = 0, relRef = 1, res = 0.00160787, resAbs = 2.58523e-06, nIters = 1, maxD = 0.00259909
    Solving
  0 KSP Residual norm < 1.e-11
    Iter = 1, relRef = 0, res = 0, resAbs = 0, nIters = 0, maxD = 0.00259909
    Converged
    Max DEpsilonPEq is 0
    0 cells (0% of the cells in this material) are actively yielding

ExecutionTime = 0.74 s  ClockTime = 2 s

Time = 5.4

Evolving solid solver
    Assembling the matrix
    Solving
  0 KSP Residual norm 0.00160787 
  1 KSP Residual norm < 1.e-11
    Initial residual = 2.58523e-06
    Iter = 0, relRef = 1, res = 0.00160787, resAbs = 2.58523e-06, nIters = 1, maxD = 0.00269906
    Solving
  0 KSP Residual norm < 1.e-11
    Iter = 1, relRef = 0, res = 0, resAbs = 0, nIters = 0, maxD = 0.00269906
    Converged
    Max DEpsilonPEq is 0
    0 cells (0% of the cells in this material) are actively yielding

ExecutionTime = 0.77 s  ClockTime = 2 s

Time = 5.6

Evolving solid solver
    Assembling the matrix
    Solving
  0 KSP Residual norm 0.00160787 
  1 KSP Residual norm < 1.e-11
    Initial residual = 2.58523e-06
    Iter = 0, relRef = 1, res = 0.00160787, resAbs = 2.58523e-06, nIters = 1, maxD = 0.00279902
    Solving
  0 KSP Residual norm 1.98374e-05 
  1 KSP Residual norm < 1.e-11
    Iter = 1, relRef = 0.00015222, res = 1.98374e-05, resAbs = 3.93523e-10, nIters = 1, maxD = 0.00279984
    Solving
  0 KSP Residual norm 7.63656e-06 
  1 KSP Residual norm < 1.e-11
    Iter = 2, relRef = 2.25578e-05, res = 7.63656e-06, resAbs = 5.83171e-11, nIters = 1, maxD = 0.00280015
    Solving
  0 KSP Residual norm 2.94679e-06 
  1 KSP Residual norm < 1.e-11
    Iter = 3, relRef = 3.3589e-06, res = 2.94679e-06, resAbs = 8.68354e-12, nIters = 1, maxD = 0.00280028
    Solving
  0 KSP Residual norm 1.13817e-06 
  1 KSP Residual norm < 1.e-11
    Iter = 4, relRef = 5.01086e-07, res = 1.13817e-06, resAbs = 1.29543e-12, nIters = 1, maxD = 0.00280032
    Solving
  0 KSP Residual norm 4.39767e-07 
  1 KSP Residual norm < 1.e-11
    Iter = 5, relRef = 7.48075e-08, res = 4.39767e-07, resAbs = 1.93395e-13, nIters = 1, maxD = 0.00280034
    Solving
  0 KSP Residual norm 1.69942e-07 
  1 KSP Residual norm < 1.e-11
    Iter = 6, relRef = 1.11712e-08, res = 1.69942e-07, resAbs = 2.88802e-14, nIters = 1, maxD = 0.00280035
    Solving
  0 KSP Residual norm 6.56753e-08 
  1 KSP Residual norm < 1.e-11
    Iter = 7, relRef = 1.66841e-09, res = 6.56753e-08, resAbs = 4.31324e-15, nIters = 1, maxD = 0.00280035
    Solving
  0 KSP Residual norm 2.53812e-08 
  1 KSP Residual norm < 1.e-11
    Iter = 8, relRef = 2.49187e-10, res = 2.53812e-08, resAbs = 6.44206e-16, nIters = 1, maxD = 0.00280035
    Solving
  0 KSP Residual norm 9.80905e-09 
  1 KSP Residual norm < 1.e-11
    Iter = 9, relRef = 3.7218e-11, res = 9.80905e-09, resAbs = 9.62174e-17, nIters = 1, maxD = 0.00280035
    Converged
    Max DEpsilonPEq is 9.16155e-05
    1 cells (0.212766% of the cells in this material) are actively yielding

ExecutionTime = 0.84 s  ClockTime = 2 s

Time = 5.8

Evolving solid solver
    Assembling the matrix
    Solving
  0 KSP Residual norm 0.001643 
  1 KSP Residual norm < 1.e-11
    Initial residual = 2.69945e-06
    Iter = 0, relRef = 1, res = 0.001643, resAbs = 2.69945e-06, nIters = 1, maxD = 0.0029019
    Solving
  0 KSP Residual norm 1.91303e-05 
  1 KSP Residual norm < 1.e-11
    Iter = 1, relRef = 0.000135572, res = 1.91303e-05, resAbs = 3.6597e-10, nIters = 1, maxD = 0.0029027
    Solving
  0 KSP Residual norm 4.06609e-06 
  1 KSP Residual norm < 1.e-11
    Iter = 2, relRef = 6.1246e-06, res = 4.06609e-06, resAbs = 1.65331e-11, nIters = 1, maxD = 0.00290286
    Solving
  0 KSP Residual norm 8.51889e-07 
  1 KSP Residual norm < 1.e-11
    Iter = 3, relRef = 2.68837e-07, res = 8.51889e-07, resAbs = 7.25714e-13, nIters = 1, maxD = 0.0029029
    Solving
  0 KSP Residual norm 1.78802e-07 
  1 KSP Residual norm < 1.e-11
    Iter = 4, relRef = 1.18432e-08, res = 1.78802e-07, resAbs = 3.19701e-14, nIters = 1, maxD = 0.00290291
    Solving
  0 KSP Residual norm 3.75491e-08 
  1 KSP Residual norm < 1.e-11
    Iter = 5, relRef = 5.22303e-10, res = 3.75491e-08, resAbs = 1.40993e-15, nIters = 1, maxD = 0.00290291
    Solving
  0 KSP Residual norm 7.88655e-09 
  1 KSP Residual norm < 1.e-11
    Iter = 6, relRef = 2.30408e-11, res = 7.88655e-09, resAbs = 6.21976e-17, nIters = 1, maxD = 0.00290291
    Converged
    Max DEpsilonPEq is 0.00017843
    1 cells (0.212766% of the cells in this material) are actively yielding

ExecutionTime = 0.9 s  ClockTime = 2 s

Time = 6

Evolving solid solver
    Assembling the matrix
    Solving
  0 KSP Residual norm 0.00164288 
  1 KSP Residual norm < 1.e-11
    Initial residual = 2.69906e-06
    Iter = 0, relRef = 1, res = 0.00164288, resAbs = 2.69906e-06, nIters = 1, maxD = 0.00300445
    Solving
  0 KSP Residual norm 1.92518e-05 
  1 KSP Residual norm < 1.e-11
    Iter = 1, relRef = 0.000137319, res = 1.92518e-05, resAbs = 3.7063e-10, nIters = 1, maxD = 0.00300525
    Solving
  0 KSP Residual norm 4.1505e-06 
  1 KSP Residual norm < 1.e-11
    Iter = 2, relRef = 6.38247e-06, res = 4.1505e-06, resAbs = 1.72266e-11, nIters = 1, maxD = 0.00300542
    Solving
  0 KSP Residual norm 8.80298e-07 
  1 KSP Residual norm < 1.e-11
    Iter = 3, relRef = 2.8711e-07, res = 8.80298e-07, resAbs = 7.74925e-13, nIters = 1, maxD = 0.00300546
    Solving
  0 KSP Residual norm 1.87045e-07 
  1 KSP Residual norm < 1.e-11
    Iter = 4, relRef = 1.29622e-08, res = 1.87045e-07, resAbs = 3.49857e-14, nIters = 1, maxD = 0.00300547
    Solving
  0 KSP Residual norm 3.97654e-08 
  1 KSP Residual norm < 1.e-11
    Iter = 5, relRef = 5.85867e-10, res = 3.97654e-08, resAbs = 1.58129e-15, nIters = 1, maxD = 0.00300547
    Solving
  0 KSP Residual norm 8.45528e-09 
  1 KSP Residual norm < 1.e-11
    Iter = 6, relRef = 2.64877e-11, res = 8.45528e-09, resAbs = 7.14917e-17, nIters = 1, maxD = 0.00300547
    Converged
    Max DEpsilonPEq is 0.000178775
    1 cells (0.212766% of the cells in this material) are actively yielding

Max pEpsilonEq = 0.00309702
Max epsilonEq = 0.00345738
Max sigmaEq (von Mises stress) = 2.43e+08
ExecutionTime = 0.98 s  ClockTime = 2 s

Time = 6.2

Evolving solid solver
    Assembling the matrix
    Solving
  0 KSP Residual norm 0.00164276 
  1 KSP Residual norm < 1.e-11
    Initial residual = 2.69867e-06
    Iter = 0, relRef = 1, res = 0.00164276, resAbs = 2.69867e-06, nIters = 1, maxD = 0.00310701
    Solving
  0 KSP Residual norm 2.79706e-05 
  1 KSP Residual norm < 1.e-11
    Iter = 1, relRef = 0.000289904, res = 2.79706e-05, resAbs = 7.82357e-10, nIters = 1, maxD = 0.0031082
    Solving
  0 KSP Residual norm 6.19397e-06 
  1 KSP Residual norm < 1.e-11
    Iter = 2, relRef = 1.42163e-05, res = 6.19397e-06, resAbs = 3.83652e-11, nIters = 1, maxD = 0.00310847
    Solving
  0 KSP Residual norm 1.45627e-06 
  1 KSP Residual norm < 1.e-11
    Iter = 3, relRef = 7.85843e-07, res = 1.45627e-06, resAbs = 2.12073e-12, nIters = 1, maxD = 0.00310853
    Solving
  0 KSP Residual norm 3.80891e-07 
  1 KSP Residual norm < 1.e-11
    Iter = 4, relRef = 5.37589e-08, res = 3.80891e-07, resAbs = 1.45078e-13, nIters = 1, maxD = 0.00310855
    Solving
  0 KSP Residual norm 1.13847e-07 
  1 KSP Residual norm < 1.e-11
    Iter = 5, relRef = 4.80279e-09, res = 1.13847e-07, resAbs = 1.29612e-14, nIters = 1, maxD = 0.00310855
    Solving
  0 KSP Residual norm 3.87687e-08 
  1 KSP Residual norm < 1.e-11
    Iter = 6, relRef = 5.56944e-10, res = 3.87687e-08, resAbs = 1.50301e-15, nIters = 1, maxD = 0.00310855
    Solving
  0 KSP Residual norm 1.45713e-08 
  1 KSP Residual norm < 1.e-11
    Iter = 7, relRef = 7.86764e-11, res = 1.45713e-08, resAbs = 2.12322e-16, nIters = 1, maxD = 0.00310855
    Converged
    Max DEpsilonPEq is 0.000172767
    2 cells (0.425532% of the cells in this material) are actively yielding

ExecutionTime = 1.05 s  ClockTime = 2 s

Time = 6.4

Evolving solid solver
    Assembling the matrix
    Solving
  0 KSP Residual norm 0.00165586 
  1 KSP Residual norm < 1.e-11
    Initial residual = 2.74189e-06
    Iter = 0, relRef = 1, res = 0.00165586, resAbs = 2.74189e-06, nIters = 1, maxD = 0.0032107
    Solving
  0 KSP Residual norm 3.2089e-05 
  1 KSP Residual norm < 1.e-11
    Iter = 1, relRef = 0.000375545, res = 3.2089e-05, resAbs = 1.0297e-09, nIters = 1, maxD = 0.00321208
    Solving
  0 KSP Residual norm 7.97537e-06 
  1 KSP Residual norm < 1.e-11
    Iter = 2, relRef = 2.31981e-05, res = 7.97537e-06, resAbs = 6.36066e-11, nIters = 1, maxD = 0.00321243
    Solving
  0 KSP Residual norm 1.82532e-06 
  1 KSP Residual norm < 1.e-11
    Iter = 3, relRef = 1.21515e-06, res = 1.82532e-06, resAbs = 3.33181e-12, nIters = 1, maxD = 0.00321251
    Solving
  0 KSP Residual norm 4.3883e-07 
  1 KSP Residual norm < 1.e-11
    Iter = 4, relRef = 7.02334e-08, res = 4.3883e-07, resAbs = 1.92572e-13, nIters = 1, maxD = 0.00321253
    Solving
  0 KSP Residual norm 1.09016e-07 
  1 KSP Residual norm < 1.e-11
    Iter = 5, relRef = 4.33441e-09, res = 1.09016e-07, resAbs = 1.18845e-14, nIters = 1, maxD = 0.00321253
    Solving
  0 KSP Residual norm 2.8051e-08 
  1 KSP Residual norm < 1.e-11
    Iter = 6, relRef = 2.86977e-10, res = 2.8051e-08, resAbs = 7.86859e-16, nIters = 1, maxD = 0.00321253
    Solving
  0 KSP Residual norm 7.45542e-09 
  1 KSP Residual norm < 1.e-11
    Iter = 7, relRef = 2.02719e-11, res = 7.45542e-09, resAbs = 5.55834e-17, nIters = 1, maxD = 0.00321253
    Converged
    Max DEpsilonPEq is 0.000162281
    2 cells (0.425532% of the cells in this material) are actively yielding

ExecutionTime = 1.12 s  ClockTime = 2 s

Time = 6.6

Evolving solid solver
    Assembling the matrix
    Solving
  0 KSP Residual norm 0.00165568 
  1 KSP Residual norm < 1.e-11
    Initial residual = 2.74128e-06
    Iter = 0, relRef = 1, res = 0.00165568, resAbs = 2.74128e-06, nIters = 1, maxD = 0.00331467
    Solving
  0 KSP Residual norm 3.22602e-05 
  1 KSP Residual norm < 1.e-11
    Iter = 1, relRef = 0.000379649, res = 3.22602e-05, resAbs = 1.04072e-09, nIters = 1, maxD = 0.00331606
    Solving
  0 KSP Residual norm 8.10122e-06 
  1 KSP Residual norm < 1.e-11
    Iter = 2, relRef = 2.39413e-05, res = 8.10122e-06, resAbs = 6.56297e-11, nIters = 1, maxD = 0.00331641
    Solving
  0 KSP Residual norm 1.87302e-06 
  1 KSP Residual norm < 1.e-11
    Iter = 3, relRef = 1.27976e-06, res = 1.87302e-06, resAbs = 3.50819e-12, nIters = 1, maxD = 0.00331649
    Solving
  0 KSP Residual norm 4.55487e-07 
  1 KSP Residual norm < 1.e-11
    Iter = 4, relRef = 7.56829e-08, res = 4.55487e-07, resAbs = 2.07468e-13, nIters = 1, maxD = 0.00331651
    Solving
  0 KSP Residual norm 1.14536e-07 
  1 KSP Residual norm < 1.e-11
    Iter = 5, relRef = 4.78549e-09, res = 1.14536e-07, resAbs = 1.31184e-14, nIters = 1, maxD = 0.00331652
    Solving
  0 KSP Residual norm 2.98425e-08 
  1 KSP Residual norm < 1.e-11
    Iter = 6, relRef = 3.24876e-10, res = 2.98425e-08, resAbs = 8.90576e-16, nIters = 1, maxD = 0.00331652
    Solving
  0 KSP Residual norm 8.03129e-09 
  1 KSP Residual norm < 1.e-11
    Iter = 7, relRef = 2.35298e-11, res = 8.03129e-09, resAbs = 6.45017e-17, nIters = 1, maxD = 0.00331652
    Converged
    Max DEpsilonPEq is 0.000162564
    2 cells (0.425532% of the cells in this material) are actively yielding

ExecutionTime = 1.22 s  ClockTime = 2 s

Time = 6.8

Evolving solid solver
    Assembling the matrix
    Solving
  0 KSP Residual norm 0.00165551 
  1 KSP Residual norm < 1.e-11
    Initial residual = 2.7407e-06
    Iter = 0, relRef = 1, res = 0.00165551, resAbs = 2.7407e-06, nIters = 1, maxD = 0.00341865
    Solving
  0 KSP Residual norm 3.24229e-05 
  1 KSP Residual norm < 1.e-11
    Iter = 1, relRef = 0.000383568, res = 3.24229e-05, resAbs = 1.05125e-09, nIters = 1, maxD = 0.00342005
    Solving
  0 KSP Residual norm 8.22279e-06 
  1 KSP Residual norm < 1.e-11
    Iter = 2, relRef = 2.46704e-05, res = 8.22279e-06, resAbs = 6.76143e-11, nIters = 1, maxD = 0.0034204
    Solving
  0 KSP Residual norm 1.91967e-06 
  1 KSP Residual norm < 1.e-11
    Iter = 3, relRef = 1.34459e-06, res = 1.91967e-06, resAbs = 3.68512e-12, nIters = 1, maxD = 0.00342049
    Solving
  0 KSP Residual norm 4.71977e-07 
  1 KSP Residual norm < 1.e-11
    Iter = 4, relRef = 8.12793e-08, res = 4.71977e-07, resAbs = 2.22762e-13, nIters = 1, maxD = 0.00342051
    Solving
  0 KSP Residual norm 1.20065e-07 
  1 KSP Residual norm < 1.e-11
    Iter = 5, relRef = 5.25985e-09, res = 1.20065e-07, resAbs = 1.44157e-14, nIters = 1, maxD = 0.00342051
    Solving
  0 KSP Residual norm 3.16583e-08 
  1 KSP Residual norm < 1.e-11
    Iter = 6, relRef = 3.6569e-10, res = 3.16583e-08, resAbs = 1.00225e-15, nIters = 1, maxD = 0.00342051
    Solving
  0 KSP Residual norm 8.62161e-09 
  1 KSP Residual norm < 1.e-11
    Iter = 7, relRef = 2.71216e-11, res = 8.62161e-09, resAbs = 7.43322e-17, nIters = 1, maxD = 0.00342051
    Converged
    Max DEpsilonPEq is 0.00016283
    2 cells (0.425532% of the cells in this material) are actively yielding

ExecutionTime = 1.28 s  ClockTime = 2 s

Time = 7

Evolving solid solver
    Assembling the matrix
    Solving
  0 KSP Residual norm 0.00165534 
  1 KSP Residual norm < 1.e-11
    Initial residual = 2.74014e-06
    Iter = 0, relRef = 1, res = 0.00165534, resAbs = 2.74014e-06, nIters = 1, maxD = 0.00352263
    Solving
  0 KSP Residual norm 3.5953e-05 
  1 KSP Residual norm < 1.e-11
    Iter = 1, relRef = 0.000471734, res = 3.5953e-05, resAbs = 1.29262e-09, nIters = 1, maxD = 0.00352419
    Solving
  0 KSP Residual norm 1.35606e-05 
  1 KSP Residual norm < 1.e-11
    Iter = 2, relRef = 6.71096e-05, res = 1.35606e-05, resAbs = 1.8389e-10, nIters = 1, maxD = 0.00352478
    Solving
  0 KSP Residual norm 5.816e-06 
  1 KSP Residual norm < 1.e-11
    Iter = 3, relRef = 1.23446e-05, res = 5.816e-06, resAbs = 3.38259e-11, nIters = 1, maxD = 0.00352503
    Solving
  0 KSP Residual norm 2.69802e-06 
  1 KSP Residual norm < 1.e-11
    Iter = 4, relRef = 2.65655e-06, res = 2.69802e-06, resAbs = 7.27931e-12, nIters = 1, maxD = 0.00352515
    Solving
  0 KSP Residual norm 1.27103e-06 
  1 KSP Residual norm < 1.e-11
    Iter = 5, relRef = 5.89571e-07, res = 1.27103e-06, resAbs = 1.61551e-12, nIters = 1, maxD = 0.0035252
    Solving
  0 KSP Residual norm 6.00803e-07 
  1 KSP Residual norm < 1.e-11
    Iter = 6, relRef = 1.31732e-07, res = 6.00803e-07, resAbs = 3.60964e-13, nIters = 1, maxD = 0.00352523
    Solving
  0 KSP Residual norm 2.84134e-07 
  1 KSP Residual norm < 1.e-11
    Iter = 7, relRef = 2.94627e-08, res = 2.84134e-07, resAbs = 8.0732e-14, nIters = 1, maxD = 0.00352524
    Solving
  0 KSP Residual norm 1.34363e-07 
  1 KSP Residual norm < 1.e-11
    Iter = 8, relRef = 6.58853e-09, res = 1.34363e-07, resAbs = 1.80535e-14, nIters = 1, maxD = 0.00352525
    Solving
  0 KSP Residual norm 6.35294e-08 
  1 KSP Residual norm < 1.e-11
    Iter = 9, relRef = 1.47291e-09, res = 6.35294e-08, resAbs = 4.03599e-15, nIters = 1, maxD = 0.00352525
    Solving
  0 KSP Residual norm 3.00343e-08 
  1 KSP Residual norm < 1.e-11
    Iter = 10, relRef = 3.29201e-10, res = 3.00343e-08, resAbs = 9.02058e-16, nIters = 1, maxD = 0.00352525
    Solving
  0 KSP Residual norm 1.41979e-08 
  1 KSP Residual norm < 1.e-11
    Iter = 11, relRef = 7.35653e-11, res = 1.41979e-08, resAbs = 2.01579e-16, nIters = 1, maxD = 0.00352525
    Converged
    Max DEpsilonPEq is 0.000175026
    3 cells (0.638298% of the cells in this material) are actively yielding

Max pEpsilonEq = 0.00380466
Max epsilonEq = 0.0042927
Max sigmaEq (von Mises stress) = 2.43e+08
ExecutionTime = 1.4 s  ClockTime = 2 s

Time = 7.2

Evolving solid solver
    Assembling the matrix
    Solving
  0 KSP Residual norm 0.00167061 
  1 KSP Residual norm < 1.e-11
    Initial residual = 2.79094e-06
    Iter = 0, relRef = 1, res = 0.00167061, resAbs = 2.79094e-06, nIters = 1, maxD = 0.00362808
    Solving
  0 KSP Residual norm 5.23913e-05 
  1 KSP Residual norm < 1.e-11
    Iter = 1, relRef = 0.000983488, res = 5.23913e-05, resAbs = 2.74485e-09, nIters = 1, maxD = 0.00363036
    Solving
  0 KSP Residual norm 2.238e-05 
  1 KSP Residual norm < 1.e-11
    Iter = 2, relRef = 0.000179461, res = 2.238e-05, resAbs = 5.00864e-10, nIters = 1, maxD = 0.00363133
    Solving
  0 KSP Residual norm 9.12951e-06 
  1 KSP Residual norm < 1.e-11
    Iter = 3, relRef = 2.98638e-05, res = 9.12951e-06, resAbs = 8.33479e-11, nIters = 1, maxD = 0.00363172
    Solving
  0 KSP Residual norm 3.83575e-06 
  1 KSP Residual norm < 1.e-11
    Iter = 4, relRef = 5.2717e-06, res = 3.83575e-06, resAbs = 1.4713e-11, nIters = 1, maxD = 0.00363189
    Solving
  0 KSP Residual norm 1.6139e-06 
  1 KSP Residual norm < 1.e-11
    Iter = 5, relRef = 9.33266e-07, res = 1.6139e-06, resAbs = 2.60469e-12, nIters = 1, maxD = 0.00363196
    Solving
  0 KSP Residual norm 6.8003e-07 
  1 KSP Residual norm < 1.e-11
    Iter = 6, relRef = 1.65694e-07, res = 6.8003e-07, resAbs = 4.62441e-13, nIters = 1, maxD = 0.00363199
    Solving
  0 KSP Residual norm 2.86558e-07 
  1 KSP Residual norm < 1.e-11
    Iter = 7, relRef = 2.94221e-08, res = 2.86558e-07, resAbs = 8.21152e-14, nIters = 1, maxD = 0.003632
    Solving
  0 KSP Residual norm 1.20747e-07 
  1 KSP Residual norm < 1.e-11
    Iter = 8, relRef = 5.22398e-09, res = 1.20747e-07, resAbs = 1.45798e-14, nIters = 1, maxD = 0.00363201
    Solving
  0 KSP Residual norm 5.08733e-08 
  1 KSP Residual norm < 1.e-11
    Iter = 9, relRef = 9.27321e-10, res = 5.08733e-08, resAbs = 2.58809e-15, nIters = 1, maxD = 0.00363201
    Solving
  0 KSP Residual norm 2.14318e-08 
  1 KSP Residual norm < 1.e-11
    Iter = 10, relRef = 1.64577e-10, res = 2.14318e-08, resAbs = 4.59323e-16, nIters = 1, maxD = 0.00363201
    Solving
  0 KSP Residual norm 9.02797e-09 
  1 KSP Residual norm < 1.e-11
    Iter = 11, relRef = 2.92032e-11, res = 9.02797e-09, resAbs = 8.15043e-17, nIters = 1, maxD = 0.00363201
    Converged
    Max DEpsilonPEq is 0.000208503
    3 cells (0.638298% of the cells in this material) are actively yielding

ExecutionTime = 1.5 s  ClockTime = 3 s

Time = 7.4

Evolving solid solver
    Assembling the matrix
    Solving
  0 KSP Residual norm 0.00167018 
  1 KSP Residual norm < 1.e-11
    Initial residual = 2.7895e-06
    Iter = 0, relRef = 1, res = 0.00167018, resAbs = 2.7895e-06, nIters = 1, maxD = 0.00373482
    Solving
  0 KSP Residual norm 6.69728e-05 
  1 KSP Residual norm < 1.e-11
    Iter = 1, relRef = 0.00160794, res = 6.69728e-05, resAbs = 4.48535e-09, nIters = 1, maxD = 0.00373773
    Solving
  0 KSP Residual norm 3.28652e-05 
  1 KSP Residual norm < 1.e-11
    Iter = 2, relRef = 0.00038721, res = 3.28652e-05, resAbs = 1.08012e-09, nIters = 1, maxD = 0.00373915
    Solving
  0 KSP Residual norm 1.58498e-05 
  1 KSP Residual norm < 1.e-11
    Iter = 3, relRef = 9.00574e-05, res = 1.58498e-05, resAbs = 2.51215e-10, nIters = 1, maxD = 0.00373984
    Solving
  0 KSP Residual norm 7.88823e-06 
  1 KSP Residual norm < 1.e-11
    Iter = 4, relRef = 2.23066e-05, res = 7.88823e-06, resAbs = 6.22241e-11, nIters = 1, maxD = 0.00374018
    Solving
  0 KSP Residual norm 3.98487e-06 
  1 KSP Residual norm < 1.e-11
    Iter = 5, relRef = 5.6925e-06, res = 3.98487e-06, resAbs = 1.58792e-11, nIters = 1, maxD = 0.00374035
    Solving
  0 KSP Residual norm 2.0397e-06 
  1 KSP Residual norm < 1.e-11
    Iter = 6, relRef = 1.49144e-06, res = 2.0397e-06, resAbs = 4.16036e-12, nIters = 1, maxD = 0.00374043
    Solving
  0 KSP Residual norm 1.05527e-06 
  1 KSP Residual norm < 1.e-11
    Iter = 7, relRef = 3.99207e-07, res = 1.05527e-06, resAbs = 1.11359e-12, nIters = 1, maxD = 0.00374048
    Solving
  0 KSP Residual norm 5.5081e-07 
  1 KSP Residual norm < 1.e-11
    Iter = 8, relRef = 1.08762e-07, res = 5.5081e-07, resAbs = 3.03391e-13, nIters = 1, maxD = 0.0037405
    Solving
  0 KSP Residual norm 2.89586e-07 
  1 KSP Residual norm < 1.e-11
    Iter = 9, relRef = 3.00627e-08, res = 2.89586e-07, resAbs = 8.38599e-14, nIters = 1, maxD = 0.00374052
    Solving
  0 KSP Residual norm 1.53139e-07 
  1 KSP Residual norm < 1.e-11
    Iter = 10, relRef = 8.40711e-09, res = 1.53139e-07, resAbs = 2.34516e-14, nIters = 1, maxD = 0.00374052
    Solving
  0 KSP Residual norm 8.1362e-08 
  1 KSP Residual norm < 1.e-11
    Iter = 11, relRef = 2.37311e-09, res = 8.1362e-08, resAbs = 6.61978e-15, nIters = 1, maxD = 0.00374053
    Solving
  0 KSP Residual norm 4.33876e-08 
  1 KSP Residual norm < 1.e-11
    Iter = 12, relRef = 6.74846e-10, res = 4.33876e-08, resAbs = 1.88248e-15, nIters = 1, maxD = 0.00374053
    Solving
  0 KSP Residual norm 2.32047e-08 
  1 KSP Residual norm < 1.e-11
    Iter = 13, relRef = 1.9303e-10, res = 2.32047e-08, resAbs = 5.38457e-16, nIters = 1, maxD = 0.00374053
    Solving
  0 KSP Residual norm 1.24388e-08 
  1 KSP Residual norm < 1.e-11
    Iter = 14, relRef = 5.54668e-11, res = 1.24388e-08, resAbs = 1.54724e-16, nIters = 1, maxD = 0.00374053
    Converged
    Max DEpsilonPEq is 0.000233337
    4 cells (0.851064% of the cells in this material) are actively yielding

ExecutionTime = 1.64 s  ClockTime = 3 s

Time = 7.6

Evolving solid solver
    Assembling the matrix
    Solving
  0 KSP Residual norm 0.00169271 
  1 KSP Residual norm < 1.e-11
    Initial residual = 2.86528e-06
    Iter = 0, relRef = 1, res = 0.00169271, resAbs = 2.86528e-06, nIters = 1, maxD = 0.00384437
    Solving
  0 KSP Residual norm 7.91278e-05 
  1 KSP Residual norm < 1.e-11
    Iter = 1, relRef = 0.0021852, res = 7.91278e-05, resAbs = 6.2612e-09, nIters = 1, maxD = 0.00384781
    Solving
  0 KSP Residual norm 3.99502e-05 
  1 KSP Residual norm < 1.e-11
    Iter = 2, relRef = 0.00055702, res = 3.99502e-05, resAbs = 1.59602e-09, nIters = 1, maxD = 0.00384954
    Solving
  0 KSP Residual norm 1.99875e-05 
  1 KSP Residual norm < 1.e-11
    Iter = 3, relRef = 0.000139428, res = 1.99875e-05, resAbs = 3.99502e-10, nIters = 1, maxD = 0.00385041
    Solving
  0 KSP Residual norm 1.02733e-05 
  1 KSP Residual norm < 1.e-11
    Iter = 4, relRef = 3.68339e-05, res = 1.02733e-05, resAbs = 1.0554e-10, nIters = 1, maxD = 0.00385085
    Solving
  0 KSP Residual norm 5.37514e-06 
  1 KSP Residual norm < 1.e-11
    Iter = 5, relRef = 1.00835e-05, res = 5.37514e-06, resAbs = 2.88922e-11, nIters = 1, maxD = 0.00385109
    Solving
  0 KSP Residual norm 2.85328e-06 
  1 KSP Residual norm < 1.e-11
    Iter = 6, relRef = 2.84132e-06, res = 2.85328e-06, resAbs = 8.1412e-12, nIters = 1, maxD = 0.00385121
    Solving
  0 KSP Residual norm 1.53255e-06 
  1 KSP Residual norm < 1.e-11
    Iter = 7, relRef = 8.19716e-07, res = 1.53255e-06, resAbs = 2.34872e-12, nIters = 1, maxD = 0.00385128
    Solving
  0 KSP Residual norm 8.31112e-07 
  1 KSP Residual norm < 1.e-11
    Iter = 8, relRef = 2.41074e-07, res = 8.31112e-07, resAbs = 6.90747e-13, nIters = 1, maxD = 0.00385131
    Solving
  0 KSP Residual norm 4.54232e-07 
  1 KSP Residual norm < 1.e-11
    Iter = 9, relRef = 7.20093e-08, res = 4.54232e-07, resAbs = 2.06327e-13, nIters = 1, maxD = 0.00385133
    Solving
  0 KSP Residual norm 2.49805e-07 
  1 KSP Residual norm < 1.e-11
    Iter = 10, relRef = 2.17789e-08, res = 2.49805e-07, resAbs = 6.24028e-14, nIters = 1, maxD = 0.00385134
    Solving
  0 KSP Residual norm 1.38063e-07 
  1 KSP Residual norm < 1.e-11
    Iter = 11, relRef = 6.65249e-09, res = 1.38063e-07, resAbs = 1.90613e-14, nIters = 1, maxD = 0.00385135
    Solving
  0 KSP Residual norm 7.66032e-08 
  1 KSP Residual norm < 1.e-11
    Iter = 12, relRef = 2.04798e-09, res = 7.66032e-08, resAbs = 5.86804e-15, nIters = 1, maxD = 0.00385135
    Solving
  0 KSP Residual norm 4.26333e-08 
  1 KSP Residual norm < 1.e-11
    Iter = 13, relRef = 6.34351e-10, res = 4.26333e-08, resAbs = 1.8176e-15, nIters = 1, maxD = 0.00385135
    Solving
  0 KSP Residual norm 2.37843e-08 
  1 KSP Residual norm < 1.e-11
    Iter = 14, relRef = 1.9743e-10, res = 2.37843e-08, resAbs = 5.65692e-16, nIters = 1, maxD = 0.00385135
    Solving
  0 KSP Residual norm 1.32935e-08 
  1 KSP Residual norm < 1.e-11
    Iter = 15, relRef = 6.16754e-11, res = 1.32935e-08, resAbs = 1.76718e-16, nIters = 1, maxD = 0.00385136
    Converged
    Max DEpsilonPEq is 0.000266332
    5 cells (1.06383% of the cells in this material) are actively yielding

ExecutionTime = 1.76 s  ClockTime = 3 s

Time = 7.8

Evolving solid solver
    Assembling the matrix
    Solving
  0 KSP Residual norm 0.0017101 
  1 KSP Residual norm < 1.e-11
    Initial residual = 2.92443e-06
    Iter = 0, relRef = 1, res = 0.0017101, resAbs = 2.92443e-06, nIters = 1, maxD = 0.00395599
    Solving
  0 KSP Residual norm 8.67505e-05 
  1 KSP Residual norm < 1.e-11
    Iter = 1, relRef = 0.00257338, res = 8.67505e-05, resAbs = 7.52565e-09, nIters = 1, maxD = 0.00395977
    Solving
  0 KSP Residual norm 4.35966e-05 
  1 KSP Residual norm < 1.e-11
    Iter = 2, relRef = 0.000649926, res = 4.35966e-05, resAbs = 1.90066e-09, nIters = 1, maxD = 0.00396166
    Solving
  0 KSP Residual norm 2.25491e-05 
  1 KSP Residual norm < 1.e-11
    Iter = 3, relRef = 0.000173867, res = 2.25491e-05, resAbs = 5.08461e-10, nIters = 1, maxD = 0.00396264
    Solving
  0 KSP Residual norm 1.17303e-05 
  1 KSP Residual norm < 1.e-11
    Iter = 4, relRef = 4.70519e-05, res = 1.17303e-05, resAbs = 1.376e-10, nIters = 1, maxD = 0.00396314
    Solving
  0 KSP Residual norm 6.10282e-06 
  1 KSP Residual norm < 1.e-11
    Iter = 5, relRef = 1.27356e-05, res = 6.10282e-06, resAbs = 3.72444e-11, nIters = 1, maxD = 0.00396341
    Solving
  0 KSP Residual norm 3.18101e-06 
  1 KSP Residual norm < 1.e-11
    Iter = 6, relRef = 3.4601e-06, res = 3.18101e-06, resAbs = 1.01188e-11, nIters = 1, maxD = 0.00396355
    Solving
  0 KSP Residual norm 1.66069e-06 
  1 KSP Residual norm < 1.e-11
    Iter = 7, relRef = 9.43057e-07, res = 1.66069e-06, resAbs = 2.7579e-12, nIters = 1, maxD = 0.00396362
    Solving
  0 KSP Residual norm 8.6821e-07 
  1 KSP Residual norm < 1.e-11
    Iter = 8, relRef = 2.57756e-07, res = 8.6821e-07, resAbs = 7.53789e-13, nIters = 1, maxD = 0.00396366
    Solving
  0 KSP Residual norm 4.54468e-07 
  1 KSP Residual norm < 1.e-11
    Iter = 9, relRef = 7.06262e-08, res = 4.54468e-07, resAbs = 2.06541e-13, nIters = 1, maxD = 0.00396368
    Solving
  0 KSP Residual norm 2.38167e-07 
  1 KSP Residual norm < 1.e-11
    Iter = 10, relRef = 1.93964e-08, res = 2.38167e-07, resAbs = 5.67235e-14, nIters = 1, maxD = 0.00396369
    Solving
  0 KSP Residual norm 1.24948e-07 
  1 KSP Residual norm < 1.e-11
    Iter = 11, relRef = 5.33852e-09, res = 1.24948e-07, resAbs = 1.56121e-14, nIters = 1, maxD = 0.00396369
    Solving
  0 KSP Residual norm 6.56193e-08 
  1 KSP Residual norm < 1.e-11
    Iter = 12, relRef = 1.47239e-09, res = 6.56193e-08, resAbs = 4.3059e-15, nIters = 1, maxD = 0.00396369
    Solving
  0 KSP Residual norm 3.44961e-08 
  1 KSP Residual norm < 1.e-11
    Iter = 13, relRef = 4.0691e-10, res = 3.44961e-08, resAbs = 1.18998e-15, nIters = 1, maxD = 0.0039637
    Solving
  0 KSP Residual norm 1.81522e-08 
  1 KSP Residual norm < 1.e-11
    Iter = 14, relRef = 1.12673e-10, res = 1.81522e-08, resAbs = 3.29504e-16, nIters = 1, maxD = 0.0039637
    Solving
  0 KSP Residual norm 9.56097e-09 
  1 KSP Residual norm < 1.e-11
    Iter = 15, relRef = 3.12582e-11, res = 9.56097e-09, resAbs = 9.14122e-17, nIters = 1, maxD = 0.0039637
    Converged
    Max DEpsilonPEq is 0.000287748
    6 cells (1.2766% of the cells in this material) are actively yielding

ExecutionTime = 1.91 s  ClockTime = 3 s

Time = 8

Evolving solid solver
    Assembling the matrix
    Solving
  0 KSP Residual norm 0.00172535 
  1 KSP Residual norm < 1.e-11
    Initial residual = 2.97683e-06
    Iter = 0, relRef = 1, res = 0.00172535, resAbs = 2.97683e-06, nIters = 1, maxD = 0.00406904
    Solving
  0 KSP Residual norm 0.00010003 
  1 KSP Residual norm < 1.e-11
    Iter = 1, relRef = 0.00336127, res = 0.00010003, resAbs = 1.00059e-08, nIters = 1, maxD = 0.00407339
    Solving
  0 KSP Residual norm 5.1566e-05 
  1 KSP Residual norm < 1.e-11
    Iter = 2, relRef = 0.000893251, res = 5.1566e-05, resAbs = 2.65906e-09, nIters = 1, maxD = 0.00407562
    Solving
  0 KSP Residual norm 2.60809e-05 
  1 KSP Residual norm < 1.e-11
    Iter = 3, relRef = 0.000228503, res = 2.60809e-05, resAbs = 6.80215e-10, nIters = 1, maxD = 0.00407675
    Solving
  0 KSP Residual norm 1.33951e-05 
  1 KSP Residual norm < 1.e-11
    Iter = 4, relRef = 6.02747e-05, res = 1.33951e-05, resAbs = 1.79427e-10, nIters = 1, maxD = 0.00407733
    Solving
  0 KSP Residual norm 6.90072e-06 
  1 KSP Residual norm < 1.e-11
    Iter = 5, relRef = 1.59968e-05, res = 6.90072e-06, resAbs = 4.76199e-11, nIters = 1, maxD = 0.00407763
    Solving
  0 KSP Residual norm 3.56183e-06 
  1 KSP Residual norm < 1.e-11
    Iter = 6, relRef = 4.26178e-06, res = 3.56183e-06, resAbs = 1.26866e-11, nIters = 1, maxD = 0.00407779
    Solving
  0 KSP Residual norm 1.84009e-06 
  1 KSP Residual norm < 1.e-11
    Iter = 7, relRef = 1.13742e-06, res = 1.84009e-06, resAbs = 3.38592e-12, nIters = 1, maxD = 0.00407786
    Solving
  0 KSP Residual norm 9.51065e-07 
  1 KSP Residual norm < 1.e-11
    Iter = 8, relRef = 3.03855e-07, res = 9.51065e-07, resAbs = 9.04525e-13, nIters = 1, maxD = 0.00407791
    Solving
  0 KSP Residual norm 4.91691e-07 
  1 KSP Residual norm < 1.e-11
    Iter = 9, relRef = 8.12138e-08, res = 4.91691e-07, resAbs = 2.4176e-13, nIters = 1, maxD = 0.00407793
    Solving
  0 KSP Residual norm 2.54234e-07 
  1 KSP Residual norm < 1.e-11
    Iter = 10, relRef = 2.17127e-08, res = 2.54234e-07, resAbs = 6.4635e-14, nIters = 1, maxD = 0.00407794
    Solving
  0 KSP Residual norm 1.31465e-07 
  1 KSP Residual norm < 1.e-11
    Iter = 11, relRef = 5.80586e-09, res = 1.31465e-07, resAbs = 1.72831e-14, nIters = 1, maxD = 0.00407794
    Solving
  0 KSP Residual norm 6.79842e-08 
  1 KSP Residual norm < 1.e-11
    Iter = 12, relRef = 1.55261e-09, res = 6.79842e-08, resAbs = 4.62185e-15, nIters = 1, maxD = 0.00407795
    Solving
  0 KSP Residual norm 3.51576e-08 
  1 KSP Residual norm < 1.e-11
    Iter = 13, relRef = 4.15226e-10, res = 3.51576e-08, resAbs = 1.23606e-15, nIters = 1, maxD = 0.00407795
    Solving
  0 KSP Residual norm 1.81819e-08 
  1 KSP Residual norm < 1.e-11
    Iter = 14, relRef = 1.11052e-10, res = 1.81819e-08, resAbs = 3.30583e-16, nIters = 1, maxD = 0.00407795
    Solving
  0 KSP Residual norm 9.40305e-09 
  1 KSP Residual norm < 1.e-11
    Iter = 15, relRef = 2.97018e-11, res = 9.40305e-09, resAbs = 8.84173e-17, nIters = 1, maxD = 0.00407795
    Converged
    Max DEpsilonPEq is 0.000307731
    6 cells (1.2766% of the cells in this material) are actively yielding

Max pEpsilonEq = 0.00500251
Max epsilonEq = 0.0055937
Max sigmaEq (von Mises stress) = 2.43e+08
ExecutionTime = 2.03 s  ClockTime = 3 s

Time = 8.2

Evolving solid solver
    Assembling the matrix
    Solving
  0 KSP Residual norm 0.00172434 
  1 KSP Residual norm < 1.e-11
    Initial residual = 2.97335e-06
    Iter = 0, relRef = 1, res = 0.00172434, resAbs = 2.97335e-06, nIters = 1, maxD = 0.00418324
    Solving
  0 KSP Residual norm 0.00010066 
  1 KSP Residual norm < 1.e-11
    Iter = 1, relRef = 0.00340777, res = 0.00010066, resAbs = 1.01325e-08, nIters = 1, maxD = 0.00418762
    Solving
  0 KSP Residual norm 5.27135e-05 
  1 KSP Residual norm < 1.e-11
    Iter = 2, relRef = 0.000934539, res = 5.27135e-05, resAbs = 2.77871e-09, nIters = 1, maxD = 0.00418991
    Solving
  0 KSP Residual norm 2.70328e-05 
  1 KSP Residual norm < 1.e-11
    Iter = 3, relRef = 0.000245774, res = 2.70328e-05, resAbs = 7.30773e-10, nIters = 1, maxD = 0.00419108
    Solving
  0 KSP Residual norm 1.40744e-05 
  1 KSP Residual norm < 1.e-11
    Iter = 4, relRef = 6.66211e-05, res = 1.40744e-05, resAbs = 1.98088e-10, nIters = 1, maxD = 0.00419169
    Solving
  0 KSP Residual norm 7.34953e-06 
  1 KSP Residual norm < 1.e-11
    Iter = 5, relRef = 1.81666e-05, res = 7.34953e-06, resAbs = 5.40155e-11, nIters = 1, maxD = 0.00419201
    Solving
  0 KSP Residual norm 3.84516e-06 
  1 KSP Residual norm < 1.e-11
    Iter = 6, relRef = 4.97259e-06, res = 3.84516e-06, resAbs = 1.47852e-11, nIters = 1, maxD = 0.00419217
    Solving
  0 KSP Residual norm 2.01353e-06 
  1 KSP Residual norm < 1.e-11
    Iter = 7, relRef = 1.36355e-06, res = 2.01353e-06, resAbs = 4.05432e-12, nIters = 1, maxD = 0.00419226
    Solving
  0 KSP Residual norm 1.05491e-06 
  1 KSP Residual norm < 1.e-11
    Iter = 8, relRef = 3.74269e-07, res = 1.05491e-06, resAbs = 1.11283e-12, nIters = 1, maxD = 0.00419231
    Solving
  0 KSP Residual norm 5.52821e-07 
  1 KSP Residual norm < 1.e-11
    Iter = 9, relRef = 1.02784e-07, res = 5.52821e-07, resAbs = 3.05611e-13, nIters = 1, maxD = 0.00419233
    Solving
  0 KSP Residual norm 2.89747e-07 
  1 KSP Residual norm < 1.e-11
    Iter = 10, relRef = 2.82352e-08, res = 2.89747e-07, resAbs = 8.3953e-14, nIters = 1, maxD = 0.00419234
    Solving
  0 KSP Residual norm 1.51876e-07 
  1 KSP Residual norm < 1.e-11
    Iter = 11, relRef = 7.75769e-09, res = 1.51876e-07, resAbs = 2.30663e-14, nIters = 1, maxD = 0.00419235
    Solving
  0 KSP Residual norm 7.96127e-08 
  1 KSP Residual norm < 1.e-11
    Iter = 12, relRef = 2.13167e-09, res = 7.96127e-08, resAbs = 6.33819e-15, nIters = 1, maxD = 0.00419235
    Solving
  0 KSP Residual norm 4.17341e-08 
  1 KSP Residual norm < 1.e-11
    Iter = 13, relRef = 5.85783e-10, res = 4.17341e-08, resAbs = 1.74174e-15, nIters = 1, maxD = 0.00419235
    Solving
  0 KSP Residual norm 2.18782e-08 
  1 KSP Residual norm < 1.e-11
    Iter = 14, relRef = 1.60982e-10, res = 2.18782e-08, resAbs = 4.78654e-16, nIters = 1, maxD = 0.00419235
    Solving
  0 KSP Residual norm 1.14694e-08 
  1 KSP Residual norm < 1.e-11
    Iter = 15, relRef = 4.42418e-11, res = 1.14694e-08, resAbs = 1.31546e-16, nIters = 1, maxD = 0.00419236
    Converged
    Max DEpsilonPEq is 0.000311087
    6 cells (1.2766% of the cells in this material) are actively yielding

ExecutionTime = 2.12 s  ClockTime = 3 s

Time = 8.4

Evolving solid solver
    Assembling the matrix
    Solving
  0 KSP Residual norm 0.00172333 
  1 KSP Residual norm < 1.e-11
    Initial residual = 2.96987e-06
    Iter = 0, relRef = 1, res = 0.00172333, resAbs = 2.96987e-06, nIters = 1, maxD = 0.0042976
    Solving
  0 KSP Residual norm 0.00010119 
  1 KSP Residual norm < 1.e-11
    Iter = 1, relRef = 0.0034478, res = 0.00010119, resAbs = 1.02395e-08, nIters = 1, maxD = 0.00430201
    Solving
  0 KSP Residual norm 5.37737e-05 
  1 KSP Residual norm < 1.e-11
    Iter = 2, relRef = 0.000973651, res = 5.37737e-05, resAbs = 2.89161e-09, nIters = 1, maxD = 0.00430434
    Solving
  0 KSP Residual norm 2.79308e-05 
  1 KSP Residual norm < 1.e-11
    Iter = 3, relRef = 0.000262682, res = 2.79308e-05, resAbs = 7.80132e-10, nIters = 1, maxD = 0.00430555
    Solving
  0 KSP Residual norm 1.4726e-05 
  1 KSP Residual norm < 1.e-11
    Iter = 4, relRef = 7.30181e-05, res = 1.4726e-05, resAbs = 2.16854e-10, nIters = 1, maxD = 0.00430618
    Solving
  0 KSP Residual norm 7.78648e-06 
  1 KSP Residual norm < 1.e-11
    Iter = 5, relRef = 2.04148e-05, res = 7.78648e-06, resAbs = 6.06293e-11, nIters = 1, maxD = 0.00430652
    Solving
  0 KSP Residual norm 4.12493e-06 
  1 KSP Residual norm < 1.e-11
    Iter = 6, relRef = 5.72924e-06, res = 4.12493e-06, resAbs = 1.70151e-11, nIters = 1, maxD = 0.0043067
    Solving
  0 KSP Residual norm 2.18718e-06 
  1 KSP Residual norm < 1.e-11
    Iter = 7, relRef = 1.61077e-06, res = 2.18718e-06, resAbs = 4.78377e-12, nIters = 1, maxD = 0.0043068
    Solving
  0 KSP Residual norm 1.1603e-06 
  1 KSP Residual norm < 1.e-11
    Iter = 8, relRef = 4.53316e-07, res = 1.1603e-06, resAbs = 1.34629e-12, nIters = 1, maxD = 0.00430685
    Solving
  0 KSP Residual norm 6.15702e-07 
  1 KSP Residual norm < 1.e-11
    Iter = 9, relRef = 1.27645e-07, res = 6.15702e-07, resAbs = 3.79089e-13, nIters = 1, maxD = 0.00430687
    Solving
  0 KSP Residual norm 3.26768e-07 
  1 KSP Residual norm < 1.e-11
    Iter = 10, relRef = 3.59536e-08, res = 3.26768e-07, resAbs = 1.06777e-13, nIters = 1, maxD = 0.00430689
    Solving
  0 KSP Residual norm 1.7344e-07 
  1 KSP Residual norm < 1.e-11
    Iter = 11, relRef = 1.01288e-08, res = 1.7344e-07, resAbs = 3.00813e-14, nIters = 1, maxD = 0.00430689
    Solving
  0 KSP Residual norm 9.20624e-08 
  1 KSP Residual norm < 1.e-11
    Iter = 12, relRef = 2.85383e-09, res = 9.20624e-08, resAbs = 8.47549e-15, nIters = 1, maxD = 0.0043069
    Solving
  0 KSP Residual norm 4.8869e-08 
  1 KSP Residual norm < 1.e-11
    Iter = 13, relRef = 8.04136e-10, res = 4.8869e-08, resAbs = 2.38818e-15, nIters = 1, maxD = 0.0043069
    Solving
  0 KSP Residual norm 2.59416e-08 
  1 KSP Residual norm < 1.e-11
    Iter = 14, relRef = 2.26598e-10, res = 2.59416e-08, resAbs = 6.72967e-16, nIters = 1, maxD = 0.0043069
    Solving
  0 KSP Residual norm 1.37711e-08 
  1 KSP Residual norm < 1.e-11
    Iter = 15, relRef = 6.38562e-11, res = 1.37711e-08, resAbs = 1.89644e-16, nIters = 1, maxD = 0.0043069
    Converged
    Max DEpsilonPEq is 0.000314184
    6 cells (1.2766% of the cells in this material) are actively yielding

ExecutionTime = 2.28 s  ClockTime = 4 s

Time = 8.6

Evolving solid solver
    Assembling the matrix
    Solving
  0 KSP Residual norm 0.00172233 
  1 KSP Residual norm < 1.e-11
    Initial residual = 2.96641e-06
    Iter = 0, relRef = 1, res = 0.00172233, resAbs = 2.96641e-06, nIters = 1, maxD = 0.0044121
    Solving
  0 KSP Residual norm 0.000101672 
  1 KSP Residual norm < 1.e-11
    Iter = 1, relRef = 0.00348476, res = 0.000101672, resAbs = 1.03372e-08, nIters = 1, maxD = 0.00441653
    Solving
  0 KSP Residual norm 5.87918e-05 
  1 KSP Residual norm < 1.e-11
    Iter = 2, relRef = 0.00116521, res = 5.87918e-05, resAbs = 3.45648e-09, nIters = 1, maxD = 0.00441908
    Solving
  0 KSP Residual norm 3.37598e-05 
  1 KSP Residual norm < 1.e-11
    Iter = 3, relRef = 0.00038421, res = 3.37598e-05, resAbs = 1.13972e-09, nIters = 1, maxD = 0.00442054
    Solving
  0 KSP Residual norm 1.98453e-05 
  1 KSP Residual norm < 1.e-11
    Iter = 4, relRef = 0.000132765, res = 1.98453e-05, resAbs = 3.93835e-10, nIters = 1, maxD = 0.0044214
    Solving
  0 KSP Residual norm 1.17813e-05 
  1 KSP Residual norm < 1.e-11
    Iter = 5, relRef = 4.67903e-05, res = 1.17813e-05, resAbs = 1.38799e-10, nIters = 1, maxD = 0.00442191
    Solving
  0 KSP Residual norm 7.04231e-06 
  1 KSP Residual norm < 1.e-11
    Iter = 6, relRef = 1.67186e-05, res = 7.04231e-06, resAbs = 4.95941e-11, nIters = 1, maxD = 0.00442222
    Solving
  0 KSP Residual norm 4.22888e-06 
  1 KSP Residual norm < 1.e-11
    Iter = 7, relRef = 6.02865e-06, res = 4.22888e-06, resAbs = 1.78834e-11, nIters = 1, maxD = 0.0044224
    Solving
  0 KSP Residual norm 2.54745e-06 
  1 KSP Residual norm < 1.e-11
    Iter = 8, relRef = 2.18766e-06, res = 2.54745e-06, resAbs = 6.48948e-12, nIters = 1, maxD = 0.00442251
    Solving
  0 KSP Residual norm 1.53794e-06 
  1 KSP Residual norm < 1.e-11
    Iter = 9, relRef = 7.97346e-07, res = 1.53794e-06, resAbs = 2.36525e-12, nIters = 1, maxD = 0.00442258
    Solving
  0 KSP Residual norm 9.29923e-07 
  1 KSP Residual norm < 1.e-11
    Iter = 10, relRef = 2.91517e-07, res = 9.29923e-07, resAbs = 8.64757e-13, nIters = 1, maxD = 0.00442262
    Solving
  0 KSP Residual norm 5.6291e-07 
  1 KSP Residual norm < 1.e-11
    Iter = 11, relRef = 1.06819e-07, res = 5.6291e-07, resAbs = 3.16868e-13, nIters = 1, maxD = 0.00442264
    Solving
  0 KSP Residual norm 3.41022e-07 
  1 KSP Residual norm < 1.e-11
    Iter = 12, relRef = 3.92045e-08, res = 3.41022e-07, resAbs = 1.16296e-13, nIters = 1, maxD = 0.00442266
    Solving
  0 KSP Residual norm 2.06722e-07 
  1 KSP Residual norm < 1.e-11
    Iter = 13, relRef = 1.4406e-08, res = 2.06722e-07, resAbs = 4.2734e-14, nIters = 1, maxD = 0.00442267
    Solving
  0 KSP Residual norm 1.25368e-07 
  1 KSP Residual norm < 1.e-11
    Iter = 14, relRef = 5.29836e-09, res = 1.25368e-07, resAbs = 1.57171e-14, nIters = 1, maxD = 0.00442267
    Solving
  0 KSP Residual norm 7.6056e-08 
  1 KSP Residual norm < 1.e-11
    Iter = 15, relRef = 1.95001e-09, res = 7.6056e-08, resAbs = 5.78452e-15, nIters = 1, maxD = 0.00442267
    Solving
  0 KSP Residual norm 4.61526e-08 
  1 KSP Residual norm < 1.e-11
    Iter = 16, relRef = 7.18061e-10, res = 4.61526e-08, resAbs = 2.13006e-15, nIters = 1, maxD = 0.00442268
    Solving
  0 KSP Residual norm 2.80123e-08 
  1 KSP Residual norm < 1.e-11
    Iter = 17, relRef = 2.64524e-10, res = 2.80123e-08, resAbs = 7.84686e-16, nIters = 1, maxD = 0.00442268
    Solving
  0 KSP Residual norm 1.70048e-08 
  1 KSP Residual norm < 1.e-11
    Iter = 18, relRef = 9.74792e-11, res = 1.70048e-08, resAbs = 2.89163e-16, nIters = 1, maxD = 0.00442268
    Converged
    Max DEpsilonPEq is 0.000327577
    7 cells (1.48936% of the cells in this material) are actively yielding

ExecutionTime = 2.42 s  ClockTime = 4 s

Time = 8.8

Evolving solid solver
    Assembling the matrix
    Solving
  0 KSP Residual norm 0.0017383 
  1 KSP Residual norm < 1.e-11
    Initial residual = 3.02168e-06
    Iter = 0, relRef = 1, res = 0.0017383, resAbs = 3.02168e-06, nIters = 1, maxD = 0.00452862
    Solving
  0 KSP Residual norm 0.000120283 
  1 KSP Residual norm < 1.e-11
    Iter = 1, relRef = 0.00478808, res = 0.000120283, resAbs = 1.4468e-08, nIters = 1, maxD = 0.00453386
    Solving
  0 KSP Residual norm 6.98124e-05 
  1 KSP Residual norm < 1.e-11
    Iter = 2, relRef = 0.00161293, res = 6.98124e-05, resAbs = 4.87377e-09, nIters = 1, maxD = 0.00453688
    Solving
  0 KSP Residual norm 3.95181e-05 
  1 KSP Residual norm < 1.e-11
    Iter = 3, relRef = 0.000516826, res = 3.95181e-05, resAbs = 1.56168e-09, nIters = 1, maxD = 0.0045386
    Solving
  0 KSP Residual norm 2.26364e-05 
  1 KSP Residual norm < 1.e-11
    Iter = 4, relRef = 0.000169576, res = 2.26364e-05, resAbs = 5.12404e-10, nIters = 1, maxD = 0.00453958
    Solving
  0 KSP Residual norm 1.30077e-05 
  1 KSP Residual norm < 1.e-11
    Iter = 5, relRef = 5.59955e-05, res = 1.30077e-05, resAbs = 1.692e-10, nIters = 1, maxD = 0.00454014
    Solving
  0 KSP Residual norm 7.49065e-06 
  1 KSP Residual norm < 1.e-11
    Iter = 6, relRef = 1.85691e-05, res = 7.49065e-06, resAbs = 5.61099e-11, nIters = 1, maxD = 0.00454047
    Solving
  0 KSP Residual norm 4.31863e-06 
  1 KSP Residual norm < 1.e-11
    Iter = 7, relRef = 6.17226e-06, res = 4.31863e-06, resAbs = 1.86506e-11, nIters = 1, maxD = 0.00454065
    Solving
  0 KSP Residual norm 2.49154e-06 
  1 KSP Residual norm < 1.e-11
    Iter = 8, relRef = 2.05441e-06, res = 2.49154e-06, resAbs = 6.20777e-12, nIters = 1, maxD = 0.00454076
    Solving
  0 KSP Residual norm 1.43801e-06 
  1 KSP Residual norm < 1.e-11
    Iter = 9, relRef = 6.84342e-07, res = 1.43801e-06, resAbs = 2.06786e-12, nIters = 1, maxD = 0.00454082
    Solving
  0 KSP Residual norm 8.30146e-07 
  1 KSP Residual norm < 1.e-11
    Iter = 10, relRef = 2.28066e-07, res = 8.30146e-07, resAbs = 6.89142e-13, nIters = 1, maxD = 0.00454086
    Solving
  0 KSP Residual norm 4.793e-07 
  1 KSP Residual norm < 1.e-11
    Iter = 11, relRef = 7.60269e-08, res = 4.793e-07, resAbs = 2.29729e-13, nIters = 1, maxD = 0.00454088
    Solving
  0 KSP Residual norm 2.76756e-07 
  1 KSP Residual norm < 1.e-11
    Iter = 12, relRef = 2.53481e-08, res = 2.76756e-07, resAbs = 7.65937e-14, nIters = 1, maxD = 0.00454089
    Solving
  0 KSP Residual norm 1.59811e-07 
  1 KSP Residual norm < 1.e-11
    Iter = 13, relRef = 8.45213e-09, res = 1.59811e-07, resAbs = 2.55396e-14, nIters = 1, maxD = 0.0045409
    Solving
  0 KSP Residual norm 9.22851e-08 
  1 KSP Residual norm < 1.e-11
    Iter = 14, relRef = 2.81848e-09, res = 9.22851e-08, resAbs = 8.51653e-15, nIters = 1, maxD = 0.0045409
    Solving
  0 KSP Residual norm 5.32923e-08 
  1 KSP Residual norm < 1.e-11
    Iter = 15, relRef = 9.39898e-10, res = 5.32923e-08, resAbs = 2.84007e-15, nIters = 1, maxD = 0.0045409
    Solving
  0 KSP Residual norm 3.07754e-08 
  1 KSP Residual norm < 1.e-11
    Iter = 16, relRef = 3.13443e-10, res = 3.07754e-08, resAbs = 9.47123e-16, nIters = 1, maxD = 0.00454091
    Solving
  0 KSP Residual norm 1.77724e-08 
  1 KSP Residual norm < 1.e-11
    Iter = 17, relRef = 1.04531e-10, res = 1.77724e-08, resAbs = 3.15858e-16, nIters = 1, maxD = 0.00454091
    Solving
  0 KSP Residual norm 1.02634e-08 
  1 KSP Residual norm < 1.e-11
    Iter = 18, relRef = 3.48607e-11, res = 1.02634e-08, resAbs = 1.05338e-16, nIters = 1, maxD = 0.00454091
    Converged
    Max DEpsilonPEq is 0.000353133
    7 cells (1.48936% of the cells in this material) are actively yielding

ExecutionTime = 2.58 s  ClockTime = 4 s

Time = 9

Evolving solid solver
    Assembling the matrix
    Solving
  0 KSP Residual norm 0.00173696 
  1 KSP Residual norm < 1.e-11
    Initial residual = 3.01702e-06
    Iter = 0, relRef = 1, res = 0.00173696, resAbs = 3.01702e-06, nIters = 1, maxD = 0.00464679
    Solving
  0 KSP Residual norm 0.000127226 
  1 KSP Residual norm < 1.e-11
    Iter = 1, relRef = 0.00536506, res = 0.000127226, resAbs = 1.61865e-08, nIters = 1, maxD = 0.00465233
    Solving
  0 KSP Residual norm 7.86844e-05 
  1 KSP Residual norm < 1.e-11
    Iter = 2, relRef = 0.0020521, res = 7.86844e-05, resAbs = 6.19124e-09, nIters = 1, maxD = 0.00465575
    Solving
  0 KSP Residual norm 4.73686e-05 
  1 KSP Residual norm < 1.e-11
    Iter = 3, relRef = 0.000743707, res = 4.73686e-05, resAbs = 2.24378e-09, nIters = 1, maxD = 0.00465781
    Solving
  0 KSP Residual norm 2.88135e-05 
  1 KSP Residual norm < 1.e-11
    Iter = 4, relRef = 0.000275178, res = 2.88135e-05, resAbs = 8.30217e-10, nIters = 1, maxD = 0.00465906
    Solving
  0 KSP Residual norm 1.75885e-05 
  1 KSP Residual norm < 1.e-11
    Iter = 5, relRef = 0.000102536, res = 1.75885e-05, resAbs = 3.09354e-10, nIters = 1, maxD = 0.00465982
    Solving
  0 KSP Residual norm 1.08077e-05 
  1 KSP Residual norm < 1.e-11
    Iter = 6, relRef = 3.87159e-05, res = 1.08077e-05, resAbs = 1.16807e-10, nIters = 1, maxD = 0.00466029
    Solving
  0 KSP Residual norm 6.92561e-06 
  1 KSP Residual norm < 1.e-11
    Iter = 7, relRef = 1.58978e-05, res = 6.92561e-06, resAbs = 4.79641e-11, nIters = 1, maxD = 0.00466059
    Solving
  0 KSP Residual norm 4.42727e-06 
  1 KSP Residual norm < 1.e-11
    Iter = 8, relRef = 6.49671e-06, res = 4.42727e-06, resAbs = 1.96007e-11, nIters = 1, maxD = 0.00466078
    Solving
  0 KSP Residual norm 2.8444e-06 
  1 KSP Residual norm < 1.e-11
    Iter = 9, relRef = 2.68164e-06, res = 2.8444e-06, resAbs = 8.09058e-12, nIters = 1, maxD = 0.00466091
    Solving
  0 KSP Residual norm 1.83607e-06 
  1 KSP Residual norm < 1.e-11
    Iter = 10, relRef = 1.11738e-06, res = 1.83607e-06, resAbs = 3.37117e-12, nIters = 1, maxD = 0.00466099
    Solving
  0 KSP Residual norm 1.18995e-06 
  1 KSP Residual norm < 1.e-11
    Iter = 11, relRef = 4.6933e-07, res = 1.18995e-06, resAbs = 1.41598e-12, nIters = 1, maxD = 0.00466104
    Solving
  0 KSP Residual norm 7.73745e-07 
  1 KSP Residual norm < 1.e-11
    Iter = 12, relRef = 1.98435e-07, res = 7.73745e-07, resAbs = 5.98682e-13, nIters = 1, maxD = 0.00466107
    Solving
  0 KSP Residual norm 5.04474e-07 
  1 KSP Residual norm < 1.e-11
    Iter = 13, relRef = 8.43528e-08, res = 5.04474e-07, resAbs = 2.54494e-13, nIters = 1, maxD = 0.00466109
    Solving
  0 KSP Residual norm 3.29638e-07 
  1 KSP Residual norm < 1.e-11
    Iter = 14, relRef = 3.60161e-08, res = 3.29638e-07, resAbs = 1.08661e-13, nIters = 1, maxD = 0.00466111
    Solving
  0 KSP Residual norm 2.15784e-07 
  1 KSP Residual norm < 1.e-11
    Iter = 15, relRef = 1.54333e-08, res = 2.15784e-07, resAbs = 4.65626e-14, nIters = 1, maxD = 0.00466112
    Solving
  0 KSP Residual norm 1.41462e-07 
  1 KSP Residual norm < 1.e-11
    Iter = 16, relRef = 6.63286e-09, res = 1.41462e-07, resAbs = 2.00115e-14, nIters = 1, maxD = 0.00466112
    Solving
  0 KSP Residual norm 9.28509e-08 
  1 KSP Residual norm < 1.e-11
    Iter = 17, relRef = 2.85755e-09, res = 9.28509e-08, resAbs = 8.62129e-15, nIters = 1, maxD = 0.00466113
    Solving
  0 KSP Residual norm 6.10047e-08 
  1 KSP Residual norm < 1.e-11
    Iter = 18, relRef = 1.23352e-09, res = 6.10047e-08, resAbs = 3.72157e-15, nIters = 1, maxD = 0.00466113
    Solving
  0 KSP Residual norm 4.01139e-08 
  1 KSP Residual norm < 1.e-11
    Iter = 19, relRef = 5.33348e-10, res = 4.01139e-08, resAbs = 1.60912e-15, nIters = 1, maxD = 0.00466113
    Solving
  0 KSP Residual norm 2.63948e-08 
  1 KSP Residual norm < 1.e-11
    Iter = 20, relRef = 2.30918e-10, res = 2.63948e-08, resAbs = 6.96686e-16, nIters = 1, maxD = 0.00466113
    Solving
  0 KSP Residual norm 1.73774e-08 
  1 KSP Residual norm < 1.e-11
    Iter = 21, relRef = 1.0009e-10, res = 1.73774e-08, resAbs = 3.01973e-16, nIters = 1, maxD = 0.00466113
    Solving
  0 KSP Residual norm 1.14459e-08 
  1 KSP Residual norm < 1.e-11
    Iter = 22, relRef = 4.34229e-11, res = 1.14459e-08, resAbs = 1.31008e-16, nIters = 1, maxD = 0.00466114
    Converged
    Max DEpsilonPEq is 0.000366035
    10 cells (2.12766% of the cells in this material) are actively yielding

Max pEpsilonEq = 0.00649465
Max epsilonEq = 0.00725952
Max sigmaEq (von Mises stress) = 2.43e+08
ExecutionTime = 2.81 s  ClockTime = 4 s

Time = 9.2

Evolving solid solver
    Assembling the matrix
    Solving
  0 KSP Residual norm 0.00177065 
  1 KSP Residual norm < 1.e-11
    Initial residual = 3.13519e-06
    Iter = 0, relRef = 1, res = 0.00177065, resAbs = 3.13519e-06, nIters = 1, maxD = 0.00476857
    Solving
  0 KSP Residual norm 0.000151343 
  1 KSP Residual norm < 1.e-11
    Iter = 1, relRef = 0.0073057, res = 0.000151343, resAbs = 2.29047e-08, nIters = 1, maxD = 0.00477517
    Solving
  0 KSP Residual norm 9.32404e-05 
  1 KSP Residual norm < 1.e-11
    Iter = 2, relRef = 0.00277296, res = 9.32404e-05, resAbs = 8.69376e-09, nIters = 1, maxD = 0.00477922
    Solving
  0 KSP Residual norm 5.73507e-05 
  1 KSP Residual norm < 1.e-11
    Iter = 3, relRef = 0.00104909, res = 5.73507e-05, resAbs = 3.28911e-09, nIters = 1, maxD = 0.00478171
    Solving
  0 KSP Residual norm 3.57888e-05 
  1 KSP Residual norm < 1.e-11
    Iter = 4, relRef = 0.000408537, res = 3.57888e-05, resAbs = 1.28084e-09, nIters = 1, maxD = 0.00478327
    Solving
  0 KSP Residual norm 2.24426e-05 
  1 KSP Residual norm < 1.e-11
    Iter = 5, relRef = 0.000160651, res = 2.24426e-05, resAbs = 5.0367e-10, nIters = 1, maxD = 0.00478424
    Solving
  0 KSP Residual norm 1.41178e-05 
  1 KSP Residual norm < 1.e-11
    Iter = 6, relRef = 6.35729e-05, res = 1.41178e-05, resAbs = 1.99313e-10, nIters = 1, maxD = 0.00478486
    Solving
  0 KSP Residual norm 8.89928e-06 
  1 KSP Residual norm < 1.e-11
    Iter = 7, relRef = 2.52607e-05, res = 8.89928e-06, resAbs = 7.91971e-11, nIters = 1, maxD = 0.00478524
    Solving
  0 KSP Residual norm 5.61778e-06 
  1 KSP Residual norm < 1.e-11
    Iter = 8, relRef = 1.00662e-05, res = 5.61778e-06, resAbs = 3.15595e-11, nIters = 1, maxD = 0.00478549
    Solving
  0 KSP Residual norm 3.54996e-06 
  1 KSP Residual norm < 1.e-11
    Iter = 9, relRef = 4.01961e-06, res = 3.54996e-06, resAbs = 1.26022e-11, nIters = 1, maxD = 0.00478564
    Solving
  0 KSP Residual norm 2.24499e-06 
  1 KSP Residual norm < 1.e-11
    Iter = 10, relRef = 1.60755e-06, res = 2.24499e-06, resAbs = 5.03998e-12, nIters = 1, maxD = 0.00478574
    Solving
  0 KSP Residual norm 1.42055e-06 
  1 KSP Residual norm < 1.e-11
    Iter = 11, relRef = 6.43652e-07, res = 1.42055e-06, resAbs = 2.01797e-12, nIters = 1, maxD = 0.0047858
    Solving
  0 KSP Residual norm 8.99281e-07 
  1 KSP Residual norm < 1.e-11
    Iter = 12, relRef = 2.57945e-07, res = 8.99281e-07, resAbs = 8.08707e-13, nIters = 1, maxD = 0.00478584
    Solving
  0 KSP Residual norm 5.69492e-07 
  1 KSP Residual norm < 1.e-11
    Iter = 13, relRef = 1.03445e-07, res = 5.69492e-07, resAbs = 3.24321e-13, nIters = 1, maxD = 0.00478586
    Solving
  0 KSP Residual norm 3.60747e-07 
  1 KSP Residual norm < 1.e-11
    Iter = 14, relRef = 4.1509e-08, res = 3.60747e-07, resAbs = 1.30139e-13, nIters = 1, maxD = 0.00478588
    Solving
  0 KSP Residual norm 2.2857e-07 
  1 KSP Residual norm < 1.e-11
    Iter = 15, relRef = 1.66638e-08, res = 2.2857e-07, resAbs = 5.22443e-14, nIters = 1, maxD = 0.00478589
    Solving
  0 KSP Residual norm 1.4485e-07 
  1 KSP Residual norm < 1.e-11
    Iter = 16, relRef = 6.69227e-09, res = 1.4485e-07, resAbs = 2.09815e-14, nIters = 1, maxD = 0.00478589
    Solving
  0 KSP Residual norm 9.18092e-08 
  1 KSP Residual norm < 1.e-11
    Iter = 17, relRef = 2.68849e-09, res = 9.18092e-08, resAbs = 8.42893e-15, nIters = 1, maxD = 0.0047859
    Solving
  0 KSP Residual norm 5.81984e-08 
  1 KSP Residual norm < 1.e-11
    Iter = 18, relRef = 1.08034e-09, res = 5.81984e-08, resAbs = 3.38706e-15, nIters = 1, maxD = 0.0047859
    Solving
  0 KSP Residual norm 3.68965e-08 
  1 KSP Residual norm < 1.e-11
    Iter = 19, relRef = 4.34217e-10, res = 3.68965e-08, resAbs = 1.36135e-15, nIters = 1, maxD = 0.0047859
    Solving
  0 KSP Residual norm 2.33937e-08 
  1 KSP Residual norm < 1.e-11
    Iter = 20, relRef = 1.74556e-10, res = 2.33937e-08, resAbs = 5.47267e-16, nIters = 1, maxD = 0.0047859
    Solving
  0 KSP Residual norm 1.48337e-08 
  1 KSP Residual norm < 1.e-11
    Iter = 21, relRef = 7.01833e-11, res = 1.48337e-08, resAbs = 2.20038e-16, nIters = 1, maxD = 0.0047859
    Converged
    Max DEpsilonPEq is 0.000397896
    10 cells (2.12766% of the cells in this material) are actively yielding

ExecutionTime = 3 s  ClockTime = 4 s

Time = 9.4

Evolving solid solver
    Assembling the matrix
    Solving
  0 KSP Residual norm 0.00176891 
  1 KSP Residual norm < 1.e-11
    Initial residual = 3.12905e-06
    Iter = 0, relRef = 1, res = 0.00176891, resAbs = 3.12905e-06, nIters = 1, maxD = 0.00489325
    Solving
  0 KSP Residual norm 0.000155651 
  1 KSP Residual norm < 1.e-11
    Iter = 1, relRef = 0.00774269, res = 0.000155651, resAbs = 2.42273e-08, nIters = 1, maxD = 0.00490008
    Solving
  0 KSP Residual norm 9.44374e-05 
  1 KSP Residual norm < 1.e-11
    Iter = 2, relRef = 0.0028502, res = 9.44374e-05, resAbs = 8.91842e-09, nIters = 1, maxD = 0.00490418
    Solving
  0 KSP Residual norm 5.81447e-05 
  1 KSP Residual norm < 1.e-11
    Iter = 3, relRef = 0.00108046, res = 5.81447e-05, resAbs = 3.38081e-09, nIters = 1, maxD = 0.00490671
    Solving
  0 KSP Residual norm 3.65385e-05 
  1 KSP Residual norm < 1.e-11
    Iter = 4, relRef = 0.000426668, res = 3.65385e-05, resAbs = 1.33506e-09, nIters = 1, maxD = 0.00490829
    Solving
  0 KSP Residual norm 2.31607e-05 
  1 KSP Residual norm < 1.e-11
    Iter = 5, relRef = 0.000171432, res = 2.31607e-05, resAbs = 5.3642e-10, nIters = 1, maxD = 0.00490929
    Solving
  0 KSP Residual norm 1.47632e-05 
  1 KSP Residual norm < 1.e-11
    Iter = 6, relRef = 6.96547e-05, res = 1.47632e-05, resAbs = 2.17953e-10, nIters = 1, maxD = 0.00490993
    Solving
  0 KSP Residual norm 9.44483e-06 
  1 KSP Residual norm < 1.e-11
    Iter = 7, relRef = 2.85086e-05, res = 9.44483e-06, resAbs = 8.92049e-11, nIters = 1, maxD = 0.00491033
    Solving
  0 KSP Residual norm 6.05726e-06 
  1 KSP Residual norm < 1.e-11
    Iter = 8, relRef = 1.17258e-05, res = 6.05726e-06, resAbs = 3.66904e-11, nIters = 1, maxD = 0.0049106
    Solving
  0 KSP Residual norm 3.89123e-06 
  1 KSP Residual norm < 1.e-11
    Iter = 9, relRef = 4.83908e-06, res = 3.89123e-06, resAbs = 1.51417e-11, nIters = 1, maxD = 0.00491076
    Solving
  0 KSP Residual norm 2.50264e-06 
  1 KSP Residual norm < 1.e-11
    Iter = 10, relRef = 2.00164e-06, res = 2.50264e-06, resAbs = 6.26322e-12, nIters = 1, maxD = 0.00491087
    Solving
  0 KSP Residual norm 1.61086e-06 
  1 KSP Residual norm < 1.e-11
    Iter = 11, relRef = 8.2928e-07, res = 1.61086e-06, resAbs = 2.59486e-12, nIters = 1, maxD = 0.00491094
    Solving
  0 KSP Residual norm 1.03742e-06 
  1 KSP Residual norm < 1.e-11
    Iter = 12, relRef = 3.43953e-07, res = 1.03742e-06, resAbs = 1.07625e-12, nIters = 1, maxD = 0.00491099
    Solving
  0 KSP Residual norm 6.68381e-07 
  1 KSP Residual norm < 1.e-11
    Iter = 13, relRef = 1.4277e-07, res = 6.68381e-07, resAbs = 4.46734e-13, nIters = 1, maxD = 0.00491101
    Solving
  0 KSP Residual norm 4.30738e-07 
  1 KSP Residual norm < 1.e-11
    Iter = 14, relRef = 5.92944e-08, res = 4.30738e-07, resAbs = 1.85535e-13, nIters = 1, maxD = 0.00491103
    Solving
  0 KSP Residual norm 2.77643e-07 
  1 KSP Residual norm < 1.e-11
    Iter = 15, relRef = 2.46355e-08, res = 2.77643e-07, resAbs = 7.70857e-14, nIters = 1, maxD = 0.00491104
    Solving
  0 KSP Residual norm 1.78988e-07 
  1 KSP Residual norm < 1.e-11
    Iter = 16, relRef = 1.02385e-08, res = 1.78988e-07, resAbs = 3.20366e-14, nIters = 1, maxD = 0.00491105
    Solving
  0 KSP Residual norm 1.154e-07 
  1 KSP Residual norm < 1.e-11
    Iter = 17, relRef = 4.25596e-09, res = 1.154e-07, resAbs = 1.33171e-14, nIters = 1, maxD = 0.00491106
    Solving
  0 KSP Residual norm 7.44081e-08 
  1 KSP Residual norm < 1.e-11
    Iter = 18, relRef = 1.76941e-09, res = 7.44081e-08, resAbs = 5.53656e-15, nIters = 1, maxD = 0.00491106
    Solving
  0 KSP Residual norm 4.798e-08 
  1 KSP Residual norm < 1.e-11
    Iter = 19, relRef = 7.35714e-10, res = 4.798e-08, resAbs = 2.30208e-15, nIters = 1, maxD = 0.00491106
    Solving
  0 KSP Residual norm 3.094e-08 
  1 KSP Residual norm < 1.e-11
    Iter = 20, relRef = 3.05934e-10, res = 3.094e-08, resAbs = 9.57283e-16, nIters = 1, maxD = 0.00491106
    Solving
  0 KSP Residual norm 1.99524e-08 
  1 KSP Residual norm < 1.e-11
    Iter = 21, relRef = 1.27226e-10, res = 1.99524e-08, resAbs = 3.98097e-16, nIters = 1, maxD = 0.00491106
    Solving
  0 KSP Residual norm 1.28671e-08 
  1 KSP Residual norm < 1.e-11
    Iter = 22, relRef = 5.29113e-11, res = 1.28671e-08, resAbs = 1.65562e-16, nIters = 1, maxD = 0.00491107
    Converged
    Max DEpsilonPEq is 0.000401657
    11 cells (2.34043% of the cells in this material) are actively yielding

ExecutionTime = 3.11 s  ClockTime = 5 s

Time = 9.6

Evolving solid solver
    Assembling the matrix
    Solving
  0 KSP Residual norm 0.00177176 
  1 KSP Residual norm < 1.e-11
    Initial residual = 3.13912e-06
    Iter = 0, relRef = 1, res = 0.00177176, resAbs = 3.13912e-06, nIters = 1, maxD = 0.00501856
    Solving
  0 KSP Residual norm 0.000180947 
  1 KSP Residual norm < 1.e-11
    Iter = 1, relRef = 0.0104302, res = 0.000180947, resAbs = 3.27417e-08, nIters = 1, maxD = 0.00502656
    Solving
  0 KSP Residual norm 0.000116653 
  1 KSP Residual norm < 1.e-11
    Iter = 2, relRef = 0.00433498, res = 0.000116653, resAbs = 1.3608e-08, nIters = 1, maxD = 0.00503168
    Solving
  0 KSP Residual norm 7.60843e-05 
  1 KSP Residual norm < 1.e-11
    Iter = 3, relRef = 0.00184409, res = 7.60843e-05, resAbs = 5.78883e-09, nIters = 1, maxD = 0.00503501
    Solving
  0 KSP Residual norm 5.04904e-05 
  1 KSP Residual norm < 1.e-11
    Iter = 4, relRef = 0.000812101, res = 5.04904e-05, resAbs = 2.54928e-09, nIters = 1, maxD = 0.00503722
    Solving
  0 KSP Residual norm 3.37856e-05 
  1 KSP Residual norm < 1.e-11
    Iter = 5, relRef = 0.000363627, res = 3.37856e-05, resAbs = 1.14147e-09, nIters = 1, maxD = 0.00503869
    Solving
  0 KSP Residual norm 2.27493e-05 
  1 KSP Residual norm < 1.e-11
    Iter = 6, relRef = 0.000164865, res = 2.27493e-05, resAbs = 5.17531e-10, nIters = 1, maxD = 0.00503968
    Solving
  0 KSP Residual norm 1.53908e-05 
  1 KSP Residual norm < 1.e-11
    Iter = 7, relRef = 7.54596e-05, res = 1.53908e-05, resAbs = 2.36877e-10, nIters = 1, maxD = 0.00504035
    Solving
  0 KSP Residual norm 1.04511e-05 
  1 KSP Residual norm < 1.e-11
    Iter = 8, relRef = 3.4795e-05, res = 1.04511e-05, resAbs = 1.09226e-10, nIters = 1, maxD = 0.0050408
    Solving
  0 KSP Residual norm 7.11774e-06 
  1 KSP Residual norm < 1.e-11
    Iter = 9, relRef = 1.6139e-05, res = 7.11774e-06, resAbs = 5.06622e-11, nIters = 1, maxD = 0.00504111
    Solving
  0 KSP Residual norm 4.85906e-06 
  1 KSP Residual norm < 1.e-11
    Iter = 10, relRef = 7.52136e-06, res = 4.85906e-06, resAbs = 2.36105e-11, nIters = 1, maxD = 0.00504132
    Solving
  0 KSP Residual norm 3.32355e-06 
  1 KSP Residual norm < 1.e-11
    Iter = 11, relRef = 3.51882e-06, res = 3.32355e-06, resAbs = 1.1046e-11, nIters = 1, maxD = 0.00504146
    Solving
  0 KSP Residual norm 2.27691e-06 
  1 KSP Residual norm < 1.e-11
    Iter = 12, relRef = 1.65151e-06, res = 2.27691e-06, resAbs = 5.1843e-12, nIters = 1, maxD = 0.00504156
    Solving
  0 KSP Residual norm 1.56194e-06 
  1 KSP Residual norm < 1.e-11
    Iter = 13, relRef = 7.77179e-07, res = 1.56194e-06, resAbs = 2.43966e-12, nIters = 1, maxD = 0.00504163
    Solving
  0 KSP Residual norm 1.07268e-06 
  1 KSP Residual norm < 1.e-11
    Iter = 14, relRef = 3.66547e-07, res = 1.07268e-06, resAbs = 1.15063e-12, nIters = 1, maxD = 0.00504167
    Solving
  0 KSP Residual norm 7.37366e-07 
  1 KSP Residual norm < 1.e-11
    Iter = 15, relRef = 1.73204e-07, res = 7.37366e-07, resAbs = 5.43709e-13, nIters = 1, maxD = 0.0050417
    Solving
  0 KSP Residual norm 5.0728e-07 
  1 KSP Residual norm < 1.e-11
    Iter = 16, relRef = 8.19763e-08, res = 5.0728e-07, resAbs = 2.57333e-13, nIters = 1, maxD = 0.00504173
    Solving
  0 KSP Residual norm 3.49231e-07 
  1 KSP Residual norm < 1.e-11
    Iter = 17, relRef = 3.88525e-08, res = 3.49231e-07, resAbs = 1.21963e-13, nIters = 1, maxD = 0.00504174
    Solving
  0 KSP Residual norm 2.40568e-07 
  1 KSP Residual norm < 1.e-11
    Iter = 18, relRef = 1.84361e-08, res = 2.40568e-07, resAbs = 5.78731e-14, nIters = 1, maxD = 0.00504175
    Solving
  0 KSP Residual norm 1.65801e-07 
  1 KSP Residual norm < 1.e-11
    Iter = 19, relRef = 8.75727e-09, res = 1.65801e-07, resAbs = 2.74901e-14, nIters = 1, maxD = 0.00504176
    Solving
  0 KSP Residual norm 1.14323e-07 
  1 KSP Residual norm < 1.e-11
    Iter = 20, relRef = 4.16352e-09, res = 1.14323e-07, resAbs = 1.30698e-14, nIters = 1, maxD = 0.00504176
    Solving
  0 KSP Residual norm 7.88591e-08 
  1 KSP Residual norm < 1.e-11
    Iter = 21, relRef = 1.98105e-09, res = 7.88591e-08, resAbs = 6.21876e-15, nIters = 1, maxD = 0.00504177
    Solving
  0 KSP Residual norm 5.44152e-08 
  1 KSP Residual norm < 1.e-11
    Iter = 22, relRef = 9.43261e-10, res = 5.44152e-08, resAbs = 2.96101e-15, nIters = 1, maxD = 0.00504177
    Solving
  0 KSP Residual norm 3.75595e-08 
  1 KSP Residual norm < 1.e-11
[...]
    Solving
  0 KSP Residual norm < 1.e-11
    Iter = 1, relRef = 0, res = 0, resAbs = 0, nIters = 0, maxD = 0.00381498
    Converged
    Max DEpsilonPEq is 0
    0 cells (0% of the cells in this material) are actively yielding

Max pEpsilonEq = 0.00709231
Max epsilonEq = 0.00772942
Max sigmaEq (von Mises stress) = 1.84876e+08
ExecutionTime = 4.63 s  ClockTime = 6 s

Time = 13.2

Evolving solid solver
    Assembling the matrix
    Solving
  0 KSP Residual norm 0.00160787 
  1 KSP Residual norm < 1.e-11
    Initial residual = 2.58523e-06
    Iter = 0, relRef = 1, res = 0.00160787, resAbs = 2.58523e-06, nIters = 1, maxD = 0.00371501
    Solving
  0 KSP Residual norm < 1.e-11
    Iter = 1, relRef = 0, res = 0, resAbs = 0, nIters = 0, maxD = 0.00371501
    Converged
    Max DEpsilonPEq is 0
    0 cells (0% of the cells in this material) are actively yielding

ExecutionTime = 4.63 s  ClockTime = 6 s

Time = 13.4

Evolving solid solver
    Assembling the matrix
    Solving
  0 KSP Residual norm 0.00160787 
  1 KSP Residual norm < 1.e-11
    Initial residual = 2.58523e-06
    Iter = 0, relRef = 1, res = 0.00160787, resAbs = 2.58523e-06, nIters = 1, maxD = 0.00361505
    Solving
  0 KSP Residual norm < 1.e-11
    Iter = 1, relRef = 0, res = 0, resAbs = 0, nIters = 0, maxD = 0.00361505
    Converged
    Max DEpsilonPEq is 0
    0 cells (0% of the cells in this material) are actively yielding

ExecutionTime = 4.66 s  ClockTime = 6 s

Time = 13.6

Evolving solid solver
    Assembling the matrix
    Solving
  0 KSP Residual norm 0.00160787 
  1 KSP Residual norm < 1.e-11
    Initial residual = 2.58523e-06
    Iter = 0, relRef = 1, res = 0.00160787, resAbs = 2.58523e-06, nIters = 1, maxD = 0.00351508
    Solving
  0 KSP Residual norm < 1.e-11
    Iter = 1, relRef = 0, res = 0, resAbs = 0, nIters = 0, maxD = 0.00351508
    Converged
    Max DEpsilonPEq is 0
    0 cells (0% of the cells in this material) are actively yielding

ExecutionTime = 4.69 s  ClockTime = 6 s

Time = 13.8

Evolving solid solver
    Assembling the matrix
    Solving
  0 KSP Residual norm 0.00160787 
  1 KSP Residual norm < 1.e-11
    Initial residual = 2.58523e-06
    Iter = 0, relRef = 1, res = 0.00160787, resAbs = 2.58523e-06, nIters = 1, maxD = 0.00341512
    Solving
  0 KSP Residual norm < 1.e-11
    Iter = 1, relRef = 0, res = 0, resAbs = 0, nIters = 0, maxD = 0.00341512
    Converged
    Max DEpsilonPEq is 0
    0 cells (0% of the cells in this material) are actively yielding

ExecutionTime = 4.71 s  ClockTime = 6 s

Time = 14

Evolving solid solver
    Assembling the matrix
    Solving
  0 KSP Residual norm 0.00160787 
  1 KSP Residual norm < 1.e-11
    Initial residual = 2.58523e-06
    Iter = 0, relRef = 1, res = 0.00160787, resAbs = 2.58523e-06, nIters = 1, maxD = 0.00331515
    Solving
  0 KSP Residual norm < 1.e-11
    Iter = 1, relRef = 0, res = 0, resAbs = 0, nIters = 0, maxD = 0.00331515
    Converged
    Max DEpsilonPEq is 0
    0 cells (0% of the cells in this material) are actively yielding

Max pEpsilonEq = 0.00660536
Max epsilonEq = 0.00718959
Max sigmaEq (von Mises stress) = 1.65849e+08
ExecutionTime = 4.75 s  ClockTime = 7 s

Time = 14.2

Evolving solid solver
    Assembling the matrix
    Solving
  0 KSP Residual norm 0.00160787 
  1 KSP Residual norm < 1.e-11
    Initial residual = 2.58523e-06
    Iter = 0, relRef = 1, res = 0.00160787, resAbs = 2.58523e-06, nIters = 1, maxD = 0.00321519
    Solving
  0 KSP Residual norm < 1.e-11
    Iter = 1, relRef = 0, res = 0, resAbs = 0, nIters = 0, maxD = 0.00321519
    Converged
    Max DEpsilonPEq is 0
    0 cells (0% of the cells in this material) are actively yielding

ExecutionTime = 4.77 s  ClockTime = 7 s

Time = 14.4

Evolving solid solver
    Assembling the matrix
    Solving
  0 KSP Residual norm 0.00160787 
  1 KSP Residual norm < 1.e-11
    Initial residual = 2.58523e-06
    Iter = 0, relRef = 1, res = 0.00160787, resAbs = 2.58523e-06, nIters = 1, maxD = 0.00311522
    Solving
  0 KSP Residual norm < 1.e-11
    Iter = 1, relRef = 0, res = 0, resAbs = 0, nIters = 0, maxD = 0.00311522
    Converged
    Max DEpsilonPEq is 0
    0 cells (0% of the cells in this material) are actively yielding

ExecutionTime = 4.8 s  ClockTime = 7 s

Time = 14.6

Evolving solid solver
    Assembling the matrix
    Solving
  0 KSP Residual norm 0.00160787 
  1 KSP Residual norm < 1.e-11
    Initial residual = 2.58523e-06
    Iter = 0, relRef = 1, res = 0.00160787, resAbs = 2.58523e-06, nIters = 1, maxD = 0.00301526
    Solving
  0 KSP Residual norm < 1.e-11
    Iter = 1, relRef = 0, res = 0, resAbs = 0, nIters = 0, maxD = 0.00301526
    Converged
    Max DEpsilonPEq is 0
    0 cells (0% of the cells in this material) are actively yielding

ExecutionTime = 4.83 s  ClockTime = 7 s

Time = 14.8

Evolving solid solver
    Assembling the matrix
    Solving
  0 KSP Residual norm 0.00160787 
  1 KSP Residual norm < 1.e-11
    Initial residual = 2.58523e-06
    Iter = 0, relRef = 1, res = 0.00160787, resAbs = 2.58523e-06, nIters = 1, maxD = 0.00291529
    Solving
  0 KSP Residual norm < 1.e-11
    Iter = 1, relRef = 0, res = 0, resAbs = 0, nIters = 0, maxD = 0.00291529
    Converged
    Max DEpsilonPEq is 0
    0 cells (0% of the cells in this material) are actively yielding

ExecutionTime = 4.85 s  ClockTime = 7 s

Time = 15

Evolving solid solver
    Assembling the matrix
    Solving
  0 KSP Residual norm 0.00160787 
  1 KSP Residual norm < 1.e-11
    Initial residual = 2.58523e-06
    Iter = 0, relRef = 1, res = 0.00160787, resAbs = 2.58523e-06, nIters = 1, maxD = 0.00281533
    Solving
  0 KSP Residual norm < 1.e-11
    Iter = 1, relRef = 0, res = 0, resAbs = 0, nIters = 0, maxD = 0.00281533
    Converged
    Max DEpsilonPEq is 0
    0 cells (0% of the cells in this material) are actively yielding

Max pEpsilonEq = 0.00611982
Max epsilonEq = 0.00665099
Max sigmaEq (von Mises stress) = 1.46822e+08
ExecutionTime = 4.89 s  ClockTime = 7 s

Time = 15.2

Evolving solid solver
    Assembling the matrix
    Solving
  0 KSP Residual norm 0.00160787 
  1 KSP Residual norm < 1.e-11
    Initial residual = 2.58523e-06
    Iter = 0, relRef = 1, res = 0.00160787, resAbs = 2.58523e-06, nIters = 1, maxD = 0.00271536
    Solving
  0 KSP Residual norm < 1.e-11
    Iter = 1, relRef = 0, res = 0, resAbs = 0, nIters = 0, maxD = 0.00271536
    Converged
    Max DEpsilonPEq is 0
    0 cells (0% of the cells in this material) are actively yielding

ExecutionTime = 4.94 s  ClockTime = 7 s

Time = 15.4

Evolving solid solver
    Assembling the matrix
    Solving
  0 KSP Residual norm 0.00160787 
  1 KSP Residual norm < 1.e-11
    Initial residual = 2.58523e-06
    Iter = 0, relRef = 1, res = 0.00160787, resAbs = 2.58523e-06, nIters = 1, maxD = 0.0026154
    Solving
  0 KSP Residual norm < 1.e-11
    Iter = 1, relRef = 0, res = 0, resAbs = 0, nIters = 0, maxD = 0.0026154
    Converged
    Max DEpsilonPEq is 0
    0 cells (0% of the cells in this material) are actively yielding

ExecutionTime = 4.95 s  ClockTime = 7 s

Time = 15.6

Evolving solid solver
    Assembling the matrix
    Solving
  0 KSP Residual norm 0.00160787 
  1 KSP Residual norm < 1.e-11
    Initial residual = 2.58523e-06
    Iter = 0, relRef = 1, res = 0.00160787, resAbs = 2.58523e-06, nIters = 1, maxD = 0.00251543
    Solving
  0 KSP Residual norm < 1.e-11
    Iter = 1, relRef = 0, res = 0, resAbs = 0, nIters = 0, maxD = 0.00251543
    Converged
    Max DEpsilonPEq is 0
    0 cells (0% of the cells in this material) are actively yielding

ExecutionTime = 4.98 s  ClockTime = 7 s

Time = 15.8

Evolving solid solver
    Assembling the matrix
    Solving
  0 KSP Residual norm 0.00160787 
  1 KSP Residual norm < 1.e-11
    Initial residual = 2.58523e-06
    Iter = 0, relRef = 1, res = 0.00160787, resAbs = 2.58523e-06, nIters = 1, maxD = 0.00241547
    Solving
  0 KSP Residual norm < 1.e-11
    Iter = 1, relRef = 0, res = 0, resAbs = 0, nIters = 0, maxD = 0.00241547
    Converged
    Max DEpsilonPEq is 0
    0 cells (0% of the cells in this material) are actively yielding

ExecutionTime = 5 s  ClockTime = 7 s

Time = 16

Evolving solid solver
    Assembling the matrix
    Solving
  0 KSP Residual norm 0.00160787 
  1 KSP Residual norm < 1.e-11
    Initial residual = 2.58523e-06
    Iter = 0, relRef = 1, res = 0.00160787, resAbs = 2.58523e-06, nIters = 1, maxD = 0.0023155
    Solving
  0 KSP Residual norm < 1.e-11
    Iter = 1, relRef = 0, res = 0, resAbs = 0, nIters = 0, maxD = 0.0023155
    Converged
    Max DEpsilonPEq is 0
    0 cells (0% of the cells in this material) are actively yielding

Max pEpsilonEq = 0.00563605
Max epsilonEq = 0.00611393
Max sigmaEq (von Mises stress) = 1.27797e+08
ExecutionTime = 5.03 s  ClockTime = 7 s

Time = 16.2

Evolving solid solver
    Assembling the matrix
    Solving
  0 KSP Residual norm 0.00160787 
  1 KSP Residual norm < 1.e-11
    Initial residual = 2.58523e-06
    Iter = 0, relRef = 1, res = 0.00160787, resAbs = 2.58523e-06, nIters = 1, maxD = 0.00221554
    Solving
  0 KSP Residual norm < 1.e-11
    Iter = 1, relRef = 0, res = 0, resAbs = 0, nIters = 0, maxD = 0.00221554
    Converged
    Max DEpsilonPEq is 0
    0 cells (0% of the cells in this material) are actively yielding

ExecutionTime = 5.06 s  ClockTime = 7 s

Time = 16.4

Evolving solid solver
    Assembling the matrix
    Solving
  0 KSP Residual norm 0.00160787 
  1 KSP Residual norm < 1.e-11
    Initial residual = 2.58523e-06
    Iter = 0, relRef = 1, res = 0.00160787, resAbs = 2.58523e-06, nIters = 1, maxD = 0.00211557
    Solving
  0 KSP Residual norm < 1.e-11
    Iter = 1, relRef = 0, res = 0, resAbs = 0, nIters = 0, maxD = 0.00211557
    Converged
    Max DEpsilonPEq is 0
    0 cells (0% of the cells in this material) are actively yielding

ExecutionTime = 5.08 s  ClockTime = 7 s

Time = 16.6

Evolving solid solver
    Assembling the matrix
    Solving
  0 KSP Residual norm 0.00160787 
  1 KSP Residual norm < 1.e-11
    Initial residual = 2.58523e-06
    Iter = 0, relRef = 1, res = 0.00160787, resAbs = 2.58523e-06, nIters = 1, maxD = 0.00201561
    Solving
  0 KSP Residual norm < 1.e-11
    Iter = 1, relRef = 0, res = 0, resAbs = 0, nIters = 0, maxD = 0.00201561
    Converged
    Max DEpsilonPEq is 0
    0 cells (0% of the cells in this material) are actively yielding

ExecutionTime = 5.09 s  ClockTime = 7 s

Time = 16.8

Evolving solid solver
    Assembling the matrix
    Solving
  0 KSP Residual norm 0.00160787 
  1 KSP Residual norm < 1.e-11
    Initial residual = 2.58523e-06
    Iter = 0, relRef = 1, res = 0.00160787, resAbs = 2.58523e-06, nIters = 1, maxD = 0.00191564
    Solving
  0 KSP Residual norm < 1.e-11
    Iter = 1, relRef = 0, res = 0, resAbs = 0, nIters = 0, maxD = 0.00191564
    Converged
    Max DEpsilonPEq is 0
    0 cells (0% of the cells in this material) are actively yielding

ExecutionTime = 5.12 s  ClockTime = 7 s

Time = 17

Evolving solid solver
    Assembling the matrix
    Solving
  0 KSP Residual norm 0.00160787 
  1 KSP Residual norm < 1.e-11
    Initial residual = 2.58523e-06
    Iter = 0, relRef = 1, res = 0.00160787, resAbs = 2.58523e-06, nIters = 1, maxD = 0.00181568
    Solving
  0 KSP Residual norm < 1.e-11
    Iter = 1, relRef = 0, res = 0, resAbs = 0, nIters = 0, maxD = 0.00181568
    Converged
    Max DEpsilonPEq is 0
    0 cells (0% of the cells in this material) are actively yielding

Max pEpsilonEq = 0.00515455
Max epsilonEq = 0.00557887
Max sigmaEq (von Mises stress) = 1.08773e+08
ExecutionTime = 5.16 s  ClockTime = 7 s

Time = 17.2

Evolving solid solver
    Assembling the matrix
    Solving
  0 KSP Residual norm 0.00160787 
  1 KSP Residual norm < 1.e-11
    Initial residual = 2.58523e-06
    Iter = 0, relRef = 1, res = 0.00160787, resAbs = 2.58523e-06, nIters = 1, maxD = 0.00171571
    Solving
  0 KSP Residual norm < 1.e-11
    Iter = 1, relRef = 0, res = 0, resAbs = 0, nIters = 0, maxD = 0.00171571
    Converged
    Max DEpsilonPEq is 0
    0 cells (0% of the cells in this material) are actively yielding

ExecutionTime = 5.19 s  ClockTime = 7 s

Time = 17.4

Evolving solid solver
    Assembling the matrix
    Solving
  0 KSP Residual norm 0.00160787 
  1 KSP Residual norm < 1.e-11
    Initial residual = 2.58523e-06
    Iter = 0, relRef = 1, res = 0.00160787, resAbs = 2.58523e-06, nIters = 1, maxD = 0.00161575
    Solving
  0 KSP Residual norm < 1.e-11
    Iter = 1, relRef = 0, res = 0, resAbs = 0, nIters = 0, maxD = 0.00161575
    Converged
    Max DEpsilonPEq is 0
    0 cells (0% of the cells in this material) are actively yielding

ExecutionTime = 5.21 s  ClockTime = 7 s

Time = 17.6

Evolving solid solver
    Assembling the matrix
    Solving
  0 KSP Residual norm 0.00160787 
  1 KSP Residual norm < 1.e-11
    Initial residual = 2.58523e-06
    Iter = 0, relRef = 1, res = 0.00160787, resAbs = 2.58523e-06, nIters = 1, maxD = 0.00151578
    Solving
  0 KSP Residual norm < 1.e-11
    Iter = 1, relRef = 0, res = 0, resAbs = 0, nIters = 0, maxD = 0.00151578
    Converged
    Max DEpsilonPEq is 0
    0 cells (0% of the cells in this material) are actively yielding

ExecutionTime = 5.22 s  ClockTime = 7 s

Time = 17.8

Evolving solid solver
    Assembling the matrix
    Solving
  0 KSP Residual norm 0.00160787 
  1 KSP Residual norm < 1.e-11
    Initial residual = 2.58523e-06
    Iter = 0, relRef = 1, res = 0.00160787, resAbs = 2.58523e-06, nIters = 1, maxD = 0.00141582
    Solving
  0 KSP Residual norm < 1.e-11
    Iter = 1, relRef = 0, res = 0, resAbs = 0, nIters = 0, maxD = 0.00141582
    Converged
    Max DEpsilonPEq is 0
    0 cells (0% of the cells in this material) are actively yielding

ExecutionTime = 5.25 s  ClockTime = 7 s

Time = 18

Evolving solid solver
    Assembling the matrix
    Solving
  0 KSP Residual norm 0.00160787 
  1 KSP Residual norm < 1.e-11
    Initial residual = 2.58523e-06
    Iter = 0, relRef = 1, res = 0.00160787, resAbs = 2.58523e-06, nIters = 1, maxD = 0.00131585
    Solving
  0 KSP Residual norm < 1.e-11
    Iter = 1, relRef = 0, res = 0, resAbs = 0, nIters = 0, maxD = 0.00131585
    Converged
    Max DEpsilonPEq is 0
    0 cells (0% of the cells in this material) are actively yielding

Max pEpsilonEq = 0.00467602
Max epsilonEq = 0.00504643
Max sigmaEq (von Mises stress) = 1.23334e+08
ExecutionTime = 5.28 s  ClockTime = 7 s

Time = 18.2

Evolving solid solver
    Assembling the matrix
    Solving
  0 KSP Residual norm 0.00160787 
  1 KSP Residual norm < 1.e-11
    Initial residual = 2.58523e-06
    Iter = 0, relRef = 1, res = 0.00160787, resAbs = 2.58523e-06, nIters = 1, maxD = 0.00121589
    Solving
  0 KSP Residual norm < 1.e-11
    Iter = 1, relRef = 0, res = 0, resAbs = 0, nIters = 0, maxD = 0.00121589
    Converged
    Max DEpsilonPEq is 0
    0 cells (0% of the cells in this material) are actively yielding

ExecutionTime = 5.33 s  ClockTime = 7 s

Time = 18.4

Evolving solid solver
    Assembling the matrix
    Solving
  0 KSP Residual norm 0.00160787 
  1 KSP Residual norm < 1.e-11
    Initial residual = 2.58523e-06
    Iter = 0, relRef = 1, res = 0.00160787, resAbs = 2.58523e-06, nIters = 1, maxD = 0.00111592
    Solving
  0 KSP Residual norm < 1.e-11
    Iter = 1, relRef = 0, res = 0, resAbs = 0, nIters = 0, maxD = 0.00111592
    Converged
    Max DEpsilonPEq is 0
    0 cells (0% of the cells in this material) are actively yielding

ExecutionTime = 5.36 s  ClockTime = 7 s

Time = 18.6

Evolving solid solver
    Assembling the matrix
    Solving
  0 KSP Residual norm 0.00160787 
  1 KSP Residual norm < 1.e-11
    Initial residual = 2.58523e-06
    Iter = 0, relRef = 1, res = 0.00160787, resAbs = 2.58523e-06, nIters = 1, maxD = 0.00101596
    Solving
  0 KSP Residual norm < 1.e-11
    Iter = 1, relRef = 0, res = 0, resAbs = 0, nIters = 0, maxD = 0.00101596
    Converged
    Max DEpsilonPEq is 0
    0 cells (0% of the cells in this material) are actively yielding

ExecutionTime = 5.37 s  ClockTime = 7 s

Time = 18.8

Evolving solid solver
    Assembling the matrix
    Solving
  0 KSP Residual norm 0.00160787 
  1 KSP Residual norm < 1.e-11
    Initial residual = 2.58523e-06
    Iter = 0, relRef = 1, res = 0.00160787, resAbs = 2.58523e-06, nIters = 1, maxD = 0.000915991
    Solving
  0 KSP Residual norm < 1.e-11
    Iter = 1, relRef = 0, res = 0, resAbs = 0, nIters = 0, maxD = 0.000915991
    Converged
    Max DEpsilonPEq is 0
    0 cells (0% of the cells in this material) are actively yielding

ExecutionTime = 5.39 s  ClockTime = 7 s

Time = 19

Evolving solid solver
    Assembling the matrix
    Solving
  0 KSP Residual norm 0.00160787 
  1 KSP Residual norm < 1.e-11
    Initial residual = 2.58523e-06
    Iter = 0, relRef = 1, res = 0.00160787, resAbs = 2.58523e-06, nIters = 1, maxD = 0.000816026
    Solving
  0 KSP Residual norm < 1.e-11
    Iter = 1, relRef = 0, res = 0, resAbs = 0, nIters = 0, maxD = 0.000816026
    Converged
    Max DEpsilonPEq is 0
    0 cells (0% of the cells in this material) are actively yielding

Max pEpsilonEq = 0.00420146
Max epsilonEq = 0.00451754
Max sigmaEq (von Mises stress) = 1.65282e+08
ExecutionTime = 5.4 s  ClockTime = 7 s

Time = 19.2

Evolving solid solver
    Assembling the matrix
    Solving
  0 KSP Residual norm 0.00160787 
  1 KSP Residual norm < 1.e-11
    Initial residual = 2.58523e-06
    Iter = 0, relRef = 1, res = 0.00160787, resAbs = 2.58523e-06, nIters = 1, maxD = 0.000716061
    Solving
  0 KSP Residual norm < 1.e-11
    Iter = 1, relRef = 0, res = 0, resAbs = 0, nIters = 0, maxD = 0.000716061
    Converged
    Max DEpsilonPEq is 0
    0 cells (0% of the cells in this material) are actively yielding

ExecutionTime = 5.44 s  ClockTime = 7 s

Time = 19.4

Evolving solid solver
    Assembling the matrix
    Solving
  0 KSP Residual norm 0.00160787 
  1 KSP Residual norm < 1.e-11
    Initial residual = 2.58523e-06
    Iter = 0, relRef = 1, res = 0.00160787, resAbs = 2.58523e-06, nIters = 1, maxD = 0.000616096
    Solving
  0 KSP Residual norm < 1.e-11
    Iter = 1, relRef = 0, res = 0, resAbs = 0, nIters = 0, maxD = 0.000616096
    Converged
    Max DEpsilonPEq is 0
    0 cells (0% of the cells in this material) are actively yielding

ExecutionTime = 5.44 s  ClockTime = 7 s

Time = 19.6

Evolving solid solver
    Assembling the matrix
    Solving
  0 KSP Residual norm 0.00160787 
  1 KSP Residual norm < 1.e-11
    Initial residual = 2.58523e-06
    Iter = 0, relRef = 1, res = 0.00160787, resAbs = 2.58523e-06, nIters = 1, maxD = 0.000565433
    Solving
  0 KSP Residual norm < 1.e-11
    Iter = 1, relRef = 0, res = 0, resAbs = 0, nIters = 0, maxD = 0.000565433
    Converged
    Max DEpsilonPEq is 0
    0 cells (0% of the cells in this material) are actively yielding

ExecutionTime = 5.47 s  ClockTime = 7 s

Time = 19.8

Evolving solid solver
    Assembling the matrix
    Solving
  0 KSP Residual norm 0.00160787 
  1 KSP Residual norm < 1.e-11
    Initial residual = 2.58523e-06
    Iter = 0, relRef = 1, res = 0.00160787, resAbs = 2.58523e-06, nIters = 1, maxD = 0.000528944
    Solving
  0 KSP Residual norm < 1.e-11
    Iter = 1, relRef = 0, res = 0, resAbs = 0, nIters = 0, maxD = 0.000528944
    Converged
    Max DEpsilonPEq is 0
    0 cells (0% of the cells in this material) are actively yielding

ExecutionTime = 5.49 s  ClockTime = 7 s

Time = 20

Evolving solid solver
    Assembling the matrix
    Solving
  0 KSP Residual norm 0.00160787 
  1 KSP Residual norm < 1.e-11
    Initial residual = 2.58523e-06
    Iter = 0, relRef = 1, res = 0.00160787, resAbs = 2.58523e-06, nIters = 1, maxD = 0.000493334
    Solving
  0 KSP Residual norm < 1.e-11
    Iter = 1, relRef = 0, res = 0, resAbs = 0, nIters = 0, maxD = 0.000493334
    Converged
    Max DEpsilonPEq is 0
    0 cells (0% of the cells in this material) are actively yielding

Max pEpsilonEq = 0.00373241
Max epsilonEq = 0.00399362
Max sigmaEq (von Mises stress) = 2.08167e+08
ExecutionTime = 5.55 s  ClockTime = 8 s

The momentum equation converged in all time-steps


End

