/*---------------------------------------------------------------------------*\
| =========                 |                                                 |
| \\      /  F ield         | OpenFOAM: The Open Source CFD Toolbox           |
|  \\    /   O peration     | Version:  v2012                                 |
|   \\  /    A nd           | Website:  www.openfoam.com                      |
|    \\/     M anipulation  |                                                 |
\*---------------------------------------------------------------------------*/
Build  : _7bdb509494-20201222 OPENFOAM=2012
Arch   : "LSB;label=32;scalar=64"
Exec   : solids4Foam
Date   : Jul 31 2023
Time   : 14:37:18
Host   : DESKTOP-19FOE2K
PID    : 5767
I/O    : uncollated
Case   : /home/federico/OpenFOAM/federico-v2012/run/solid-benchmarks-main/linearElasticity/cantilever2/vertexCentredLinearGeometry/structuredTriangles/vertex.6
nProcs : 1
trapFpe: Floating point exception trapping enabled (FOAM_SIGFPE).
fileModificationChecking : Monitoring run-time modified files using timeStampMaster (fileModificationSkew 5, maxFileModificationPolls 20)
allowSystemOperations : Allowing user-supplied system call operations

// * * * * * * * * * * * * * * * * * * * * * * * * * * * * * * * * * * * * * //
Create time

--> FOAM Warning : 
    From static Foam::IOstreamOption::compressionType Foam::IOstreamOption::compressionEnum(const Foam::word&, Foam::IOstreamOption::compressionType)
    in file db/IOstreams/IOstreams/IOstreamOption.C at line 115
    Unknown compression specifier 'uncompressed', using compression off
/*---------------------------------------------------------------------------*\
|    For further information on the solids4Foam toolbox implementations,      |
|    please see the following publications:                                   |
|                                                                             |
|    P. Cardiff, A Karac, P. De Jaeger, H. Jasak, J. Nagy, A. Ivankovic,      |
|    Z. Tukovic: An open-source finite volume toolbox for solid mechanics and |
|    fluid-solid interaction simulations. arXiv:1808.10736v2, 2018, available |
|    at https://arxiv.org/abs/1808.10736.                                     |
|                                                                             |
|    Z. Tukovic, A. Karac, P. Cardiff, H. Jasak, A. Ivankovic: OpenFOAM       |
|    finite volume solver for fluid-solid interaction.  Transactions of       |
|    Famena, 42 (3), pp. 1-31, 2018, 10.21278/TOF.42301.                      |
\*---------------------------------------------------------------------------*/

Selecting physicsModel solidModel
Selecting solidModel vertexCentredLinearGeometry
Selecting dynamicFvMesh staticFvMesh
    under-relaxation method: fixed
Creating dualMesh
    featureAngle: 30
    doNotPreserveFaceZones: 0
    concaveMultiCells: 0
Constructing dualFaceToCell:
    internal faces not set: 0
    boundary faces not set: 9

Creating the mechanicalModel
Selecting mechanical law linearElastic
Creating the dualMechanicalModel
Selecting mechanical law linearElastic
fixedDofScale: 5080723374.19
Creating cantileverAnalytical function object
Time = 1

Evolving solid solver
    Solving
  0 KSP Residual norm 1.5604e-05 
  1 KSP Residual norm 4.72858e-06 
  2 KSP Residual norm 2.43804e-06 
  3 KSP Residual norm 1.64704e-06 
  4 KSP Residual norm 1.29523e-06 
  5 KSP Residual norm 1.12794e-06 
  6 KSP Residual norm 1.05163e-06 
  7 KSP Residual norm 1.00975e-06 
  8 KSP Residual norm 9.9973e-07 
  9 KSP Residual norm 1.01175e-06 
 10 KSP Residual norm 1.04056e-06 
 11 KSP Residual norm 1.06603e-06 
 12 KSP Residual norm 1.09904e-06 
 13 KSP Residual norm 1.13429e-06 
 14 KSP Residual norm 1.17755e-06 
 15 KSP Residual norm 1.20828e-06 
 16 KSP Residual norm 1.24866e-06 
 17 KSP Residual norm 1.28295e-06 
 18 KSP Residual norm 1.32265e-06 
 19 KSP Residual norm 1.36291e-06 
 20 KSP Residual norm 1.41548e-06 
 21 KSP Residual norm 1.4549e-06 
 22 KSP Residual norm 1.49206e-06 
 23 KSP Residual norm 1.5236e-06 
 24 KSP Residual norm 1.54802e-06 
 25 KSP Residual norm 1.57567e-06 
 26 KSP Residual norm 1.59162e-06 
 27 KSP Residual norm 1.61625e-06 
 28 KSP Residual norm 1.62722e-06 
 29 KSP Residual norm 1.63822e-06 
 30 KSP Residual norm 1.64323e-06 
 31 KSP Residual norm 1.64803e-06 
 32 KSP Residual norm 1.65674e-06 
 33 KSP Residual norm 1.66639e-06 
 34 KSP Residual norm 1.67927e-06 
 35 KSP Residual norm 1.69491e-06 
 36 KSP Residual norm 1.70958e-06 
 37 KSP Residual norm 1.72826e-06 
 38 KSP Residual norm 1.74976e-06 
 39 KSP Residual norm 1.7718e-06 
 40 KSP Residual norm 1.7919e-06 
 41 KSP Residual norm 1.81532e-06 
 42 KSP Residual norm 1.8334e-06 
 43 KSP Residual norm 1.85297e-06 
 44 KSP Residual norm 1.86807e-06 
 45 KSP Residual norm 1.88542e-06 
 46 KSP Residual norm 1.90048e-06 
 47 KSP Residual norm 1.91029e-06 
 48 KSP Residual norm 1.91829e-06 
 49 KSP Residual norm 1.92613e-06 
 50 KSP Residual norm 1.92458e-06 
 51 KSP Residual norm 1.92705e-06 
 52 KSP Residual norm 1.92333e-06 
 53 KSP Residual norm 1.92676e-06 
 54 KSP Residual norm 1.92229e-06 
 55 KSP Residual norm 1.92361e-06 
 56 KSP Residual norm 1.92661e-06 
 57 KSP Residual norm 1.92852e-06 
 58 KSP Residual norm 1.93203e-06 
 59 KSP Residual norm 1.93798e-06 
 60 KSP Residual norm 1.95043e-06 
 61 KSP Residual norm 1.96313e-06 
 62 KSP Residual norm 1.97678e-06 
 63 KSP Residual norm 1.99382e-06 
 64 KSP Residual norm 2.00783e-06 
 65 KSP Residual norm 2.01977e-06 
 66 KSP Residual norm 2.02934e-06 
 67 KSP Residual norm 2.04198e-06 
 68 KSP Residual norm 2.05717e-06 
 69 KSP Residual norm 2.07555e-06 
 70 KSP Residual norm 2.09082e-06 
 71 KSP Residual norm 2.10164e-06 
 72 KSP Residual norm 2.11647e-06 
 73 KSP Residual norm 2.13753e-06 
 74 KSP Residual norm 2.15757e-06 
 75 KSP Residual norm 2.16512e-06 
 76 KSP Residual norm 2.14131e-06 
 77 KSP Residual norm 2.07983e-06 
 78 KSP Residual norm 1.98799e-06 
 79 KSP Residual norm 1.91641e-06 
 80 KSP Residual norm 1.90838e-06 
 81 KSP Residual norm 2.00577e-06 
 82 KSP Residual norm 2.21974e-06 
 83 KSP Residual norm 2.49947e-06 
 84 KSP Residual norm 2.73463e-06 
 85 KSP Residual norm 2.82635e-06 
 86 KSP Residual norm 2.81792e-06 
 87 KSP Residual norm 2.80819e-06 
 88 KSP Residual norm 2.80446e-06 
 89 KSP Residual norm 2.69382e-06 
 90 KSP Residual norm 2.41974e-06 
 91 KSP Residual norm 2.10318e-06 
 92 KSP Residual norm 1.86056e-06 
 93 KSP Residual norm 1.68929e-06 
 94 KSP Residual norm 1.55582e-06 
 95 KSP Residual norm 1.46067e-06 
 96 KSP Residual norm 1.41285e-06 
 97 KSP Residual norm 1.40246e-06 
 98 KSP Residual norm 1.42694e-06 
 99 KSP Residual norm 1.50656e-06 
100 KSP Residual norm 1.63563e-06 
101 KSP Residual norm 1.80404e-06 
102 KSP Residual norm 2.02249e-06 
103 KSP Residual norm 2.29204e-06 
104 KSP Residual norm 2.56384e-06 
105 KSP Residual norm 2.79708e-06 
106 KSP Residual norm 3.03713e-06 
107 KSP Residual norm 3.25167e-06 
108 KSP Residual norm 3.40852e-06 
109 KSP Residual norm 3.53255e-06 
110 KSP Residual norm 3.64702e-06 
111 KSP Residual norm 3.71409e-06 
112 KSP Residual norm 3.69763e-06 
113 KSP Residual norm 3.58675e-06 
114 KSP Residual norm 3.41832e-06 
115 KSP Residual norm 3.22216e-06 
116 KSP Residual norm 2.97174e-06 
117 KSP Residual norm 2.73086e-06 
118 KSP Residual norm 2.54158e-06 
119 KSP Residual norm 2.38804e-06 
120 KSP Residual norm 2.27088e-06 
121 KSP Residual norm 2.20216e-06 
122 KSP Residual norm 2.16428e-06 
123 KSP Residual norm 2.15742e-06 
124 KSP Residual norm 2.16342e-06 
125 KSP Residual norm 2.17469e-06 
126 KSP Residual norm 2.21515e-06 
127 KSP Residual norm 2.26456e-06 
128 KSP Residual norm 2.332e-06 
129 KSP Residual norm 2.41529e-06 
130 KSP Residual norm 2.51897e-06 
131 KSP Residual norm 2.63005e-06 
132 KSP Residual norm 2.71912e-06 
133 KSP Residual norm 2.78292e-06 
134 KSP Residual norm 2.81234e-06 
135 KSP Residual norm 2.79814e-06 
136 KSP Residual norm 2.74965e-06 
137 KSP Residual norm 2.68447e-06 
138 KSP Residual norm 2.60077e-06 
139 KSP Residual norm 2.51304e-06 
140 KSP Residual norm 2.40916e-06 
141 KSP Residual norm 2.32136e-06 
142 KSP Residual norm 2.25175e-06 
143 KSP Residual norm 2.19344e-06 
144 KSP Residual norm 2.14482e-06 
145 KSP Residual norm 2.10026e-06 
146 KSP Residual norm 2.06608e-06 
147 KSP Residual norm 2.05506e-06 
148 KSP Residual norm 2.08553e-06 
149 KSP Residual norm 2.13615e-06 
150 KSP Residual norm 2.1876e-06 
151 KSP Residual norm 2.23071e-06 
152 KSP Residual norm 2.26177e-06 
153 KSP Residual norm 2.36256e-06 
154 KSP Residual norm 2.48374e-06 
155 KSP Residual norm 2.66148e-06 
156 KSP Residual norm 2.76008e-06 
157 KSP Residual norm 2.83451e-06 
158 KSP Residual norm 2.87759e-06 
159 KSP Residual norm 2.89155e-06 
160 KSP Residual norm 2.83946e-06 
161 KSP Residual norm 2.60125e-06 
162 KSP Residual norm 2.23765e-06 
163 KSP Residual norm 1.91508e-06 
164 KSP Residual norm 1.65672e-06 
165 KSP Residual norm 1.61395e-06 
166 KSP Residual norm 1.64494e-06 
167 KSP Residual norm 1.84272e-06 
168 KSP Residual norm 2.10632e-06 
169 KSP Residual norm 2.46105e-06 
170 KSP Residual norm 2.87215e-06 
171 KSP Residual norm 3.25108e-06 
172 KSP Residual norm 3.30231e-06 
173 KSP Residual norm 3.29036e-06 
174 KSP Residual norm 3.35327e-06 
175 KSP Residual norm 3.44085e-06 
176 KSP Residual norm 3.47685e-06 
177 KSP Residual norm 3.0632e-06 
178 KSP Residual norm 2.53493e-06 
179 KSP Residual norm 2.12518e-06 
180 KSP Residual norm 1.96743e-06 
181 KSP Residual norm 1.9962e-06 
182 KSP Residual norm 2.15057e-06 
183 KSP Residual norm 2.28963e-06 
184 KSP Residual norm 2.50752e-06 
185 KSP Residual norm 2.78333e-06 
186 KSP Residual norm 2.88085e-06 
187 KSP Residual norm 2.65243e-06 
188 KSP Residual norm 2.30335e-06 
189 KSP Residual norm 2.02511e-06 
190 KSP Residual norm 1.81505e-06 
191 KSP Residual norm 1.63352e-06 
192 KSP Residual norm 1.47781e-06 
193 KSP Residual norm 1.38467e-06 
194 KSP Residual norm 1.43102e-06 
195 KSP Residual norm 1.51303e-06 
196 KSP Residual norm 1.59432e-06 
197 KSP Residual norm 1.7502e-06 
198 KSP Residual norm 1.99851e-06 
199 KSP Residual norm 2.23807e-06 
200 KSP Residual norm 2.47757e-06 
201 KSP Residual norm 2.8314e-06 
202 KSP Residual norm 3.18924e-06 
203 KSP Residual norm 3.54102e-06 
204 KSP Residual norm 3.83534e-06 
205 KSP Residual norm 4.19363e-06 
206 KSP Residual norm 4.72131e-06 
207 KSP Residual norm 5.1382e-06 
208 KSP Residual norm 5.41621e-06 
209 KSP Residual norm 5.4799e-06 
210 KSP Residual norm 5.7162e-06 
211 KSP Residual norm 5.90071e-06 
212 KSP Residual norm 5.67142e-06 
213 KSP Residual norm 5.18806e-06 
214 KSP Residual norm 4.82942e-06 
215 KSP Residual norm 4.53301e-06 
216 KSP Residual norm 3.87815e-06 
217 KSP Residual norm 3.28725e-06 
218 KSP Residual norm 3.00099e-06 
219 KSP Residual norm 2.65847e-06 
220 KSP Residual norm 2.24706e-06 
221 KSP Residual norm 1.9692e-06 
222 KSP Residual norm 1.80932e-06 
223 KSP Residual norm 1.63299e-06 
224 KSP Residual norm 1.49234e-06 
225 KSP Residual norm 1.42506e-06 
226 KSP Residual norm 1.36551e-06 
227 KSP Residual norm 1.31749e-06 
228 KSP Residual norm 1.26755e-06 
229 KSP Residual norm 1.2127e-06 
230 KSP Residual norm 1.18347e-06 
231 KSP Residual norm 1.19979e-06 
232 KSP Residual norm 1.18108e-06 
233 KSP Residual norm 1.15798e-06 
234 KSP Residual norm 1.18587e-06 
235 KSP Residual norm 1.24341e-06 
236 KSP Residual norm 1.30711e-06 
237 KSP Residual norm 1.41586e-06 
238 KSP Residual norm 1.52911e-06 
239 KSP Residual norm 1.63689e-06 
240 KSP Residual norm 1.73951e-06 
241 KSP Residual norm 1.81487e-06 
242 KSP Residual norm 1.9268e-06 
243 KSP Residual norm 2.06393e-06 
244 KSP Residual norm 2.14413e-06 
245 KSP Residual norm 2.18987e-06 
246 KSP Residual norm 2.2346e-06 
247 KSP Residual norm 2.3274e-06 
248 KSP Residual norm 2.51271e-06 
249 KSP Residual norm 2.71196e-06 
250 KSP Residual norm 2.93236e-06 
251 KSP Residual norm 3.16971e-06 
252 KSP Residual norm 3.31516e-06 
253 KSP Residual norm 3.38049e-06 
254 KSP Residual norm 3.47127e-06 
255 KSP Residual norm 3.57519e-06 
256 KSP Residual norm 3.69037e-06 
257 KSP Residual norm 3.80225e-06 
258 KSP Residual norm 3.91194e-06 
259 KSP Residual norm 4.09857e-06 
260 KSP Residual norm 4.3081e-06 
261 KSP Residual norm 4.51785e-06 
262 KSP Residual norm 4.83899e-06 
263 KSP Residual norm 5.27071e-06 
264 KSP Residual norm 5.92966e-06 
265 KSP Residual norm 6.63293e-06 
266 KSP Residual norm 7.31298e-06 
267 KSP Residual norm 7.90622e-06 
268 KSP Residual norm 8.2495e-06 
269 KSP Residual norm 8.31778e-06 
270 KSP Residual norm 8.20328e-06 
271 KSP Residual norm 7.93505e-06 
272 KSP Residual norm 7.84305e-06 
273 KSP Residual norm 7.86168e-06 
274 KSP Residual norm 7.93885e-06 
275 KSP Residual norm 7.92197e-06 
276 KSP Residual norm 7.69312e-06 
277 KSP Residual norm 7.33872e-06 
278 KSP Residual norm 6.98835e-06 
279 KSP Residual norm 6.74281e-06 
280 KSP Residual norm 6.46806e-06 
281 KSP Residual norm 6.35792e-06 
282 KSP Residual norm 6.43145e-06 
283 KSP Residual norm 6.65327e-06 
284 KSP Residual norm 6.93521e-06 
285 KSP Residual norm 7.08686e-06 
286 KSP Residual norm 6.99488e-06 
287 KSP Residual norm 6.81328e-06 
288 KSP Residual norm 6.53121e-06 
289 KSP Residual norm 6.29851e-06 
290 KSP Residual norm 6.03418e-06 
291 KSP Residual norm 5.72324e-06 
292 KSP Residual norm 5.43041e-06 
293 KSP Residual norm 5.06298e-06 
294 KSP Residual norm 4.68532e-06 
295 KSP Residual norm 4.2319e-06 
296 KSP Residual norm 3.72757e-06 
297 KSP Residual norm 3.25202e-06 
298 KSP Residual norm 2.86448e-06 
299 KSP Residual norm 2.52807e-06 
300 KSP Residual norm 2.24741e-06 
301 KSP Residual norm 2.11253e-06 
302 KSP Residual norm 2.09613e-06 
303 KSP Residual norm 2.12627e-06 
304 KSP Residual norm 2.14897e-06 
305 KSP Residual norm 2.12689e-06 
306 KSP Residual norm 2.06492e-06 
307 KSP Residual norm 2.04005e-06 
308 KSP Residual norm 2.04281e-06 
309 KSP Residual norm 2.09108e-06 
310 KSP Residual norm 2.13666e-06 
311 KSP Residual norm 2.12519e-06 
312 KSP Residual norm 2.08873e-06 
313 KSP Residual norm 2.13266e-06 
314 KSP Residual norm 2.26101e-06 
315 KSP Residual norm 2.38631e-06 
316 KSP Residual norm 2.39853e-06 
317 KSP Residual norm 2.23215e-06 
318 KSP Residual norm 1.95483e-06 
319 KSP Residual norm 1.71688e-06 
320 KSP Residual norm 1.59453e-06 
321 KSP Residual norm 1.56058e-06 
322 KSP Residual norm 1.53605e-06 
323 KSP Residual norm 1.4528e-06 
324 KSP Residual norm 1.30246e-06 
325 KSP Residual norm 1.12317e-06 
326 KSP Residual norm 1.01806e-06 
327 KSP Residual norm 9.97066e-07 
328 KSP Residual norm 1.02192e-06 
329 KSP Residual norm 1.04391e-06 
330 KSP Residual norm 1.01087e-06 
331 KSP Residual norm 9.33003e-07 
332 KSP Residual norm 8.49504e-07 
333 KSP Residual norm 8.06739e-07 
334 KSP Residual norm 8.15496e-07 
335 KSP Residual norm 8.76286e-07 
336 KSP Residual norm 9.33572e-07 
337 KSP Residual norm 9.4506e-07 
338 KSP Residual norm 9.00615e-07 
339 KSP Residual norm 8.37434e-07 
340 KSP Residual norm 7.94834e-07 
341 KSP Residual norm 7.78218e-07 
342 KSP Residual norm 7.77585e-07 
343 KSP Residual norm 7.68098e-07 
344 KSP Residual norm 7.60897e-07 
345 KSP Residual norm 7.48988e-07 
346 KSP Residual norm 7.34609e-07 
347 KSP Residual norm 7.30268e-07 
348 KSP Residual norm 7.45888e-07 
349 KSP Residual norm 8.0682e-07 
350 KSP Residual norm 9.04451e-07 
351 KSP Residual norm 1.03166e-06 
352 KSP Residual norm 1.19135e-06 
353 KSP Residual norm 1.36459e-06 
354 KSP Residual norm 1.52149e-06 
355 KSP Residual norm 1.58328e-06 
356 KSP Residual norm 1.59553e-06 
357 KSP Residual norm 1.60296e-06 
358 KSP Residual norm 1.66061e-06 
359 KSP Residual norm 1.79355e-06 
360 KSP Residual norm 1.97632e-06 
361 KSP Residual norm 2.14759e-06 
362 KSP Residual norm 2.18805e-06 
363 KSP Residual norm 2.12359e-06 
364 KSP Residual norm 1.99591e-06 
365 KSP Residual norm 1.89271e-06 
366 KSP Residual norm 1.86413e-06 
367 KSP Residual norm 1.92285e-06 
368 KSP Residual norm 2.01674e-06 
369 KSP Residual norm 2.09963e-06 
370 KSP Residual norm 2.10151e-06 
371 KSP Residual norm 2.00792e-06 
372 KSP Residual norm 1.86637e-06 
373 KSP Residual norm 1.74414e-06 
374 KSP Residual norm 1.6463e-06 
375 KSP Residual norm 1.52451e-06 
376 KSP Residual norm 1.43549e-06 
377 KSP Residual norm 1.44595e-06 
378 KSP Residual norm 1.51657e-06 
379 KSP Residual norm 1.55473e-06 
380 KSP Residual norm 1.51714e-06 
381 KSP Residual norm 1.45898e-06 
382 KSP Residual norm 1.45546e-06 
383 KSP Residual norm 1.49966e-06 
384 KSP Residual norm 1.53429e-06 
385 KSP Residual norm 1.55772e-06 
386 KSP Residual norm 1.5942e-06 
387 KSP Residual norm 1.71153e-06 
388 KSP Residual norm 1.92962e-06 
389 KSP Residual norm 2.17729e-06 
390 KSP Residual norm 2.39407e-06 
391 KSP Residual norm 2.5601e-06 
392 KSP Residual norm 2.72121e-06 
393 KSP Residual norm 2.89512e-06 
394 KSP Residual norm 3.02149e-06 
395 KSP Residual norm 2.99774e-06 
396 KSP Residual norm 2.93616e-06 
397 KSP Residual norm 3.03462e-06 
398 KSP Residual norm 3.32416e-06 
399 KSP Residual norm 3.79503e-06 
400 KSP Residual norm 4.31333e-06 
401 KSP Residual norm 4.77632e-06 
402 KSP Residual norm 5.19544e-06 
403 KSP Residual norm 5.55542e-06 
404 KSP Residual norm 5.70717e-06 
405 KSP Residual norm 5.69724e-06 
406 KSP Residual norm 5.62717e-06 
407 KSP Residual norm 5.59749e-06 
408 KSP Residual norm 5.65668e-06 
409 KSP Residual norm 5.70126e-06 
410 KSP Residual norm 5.61831e-06 
411 KSP Residual norm 5.51134e-06 
412 KSP Residual norm 5.51938e-06 
413 KSP Residual norm 5.58693e-06 
414 KSP Residual norm 5.76915e-06 
415 KSP Residual norm 5.97958e-06 
416 KSP Residual norm 6.20225e-06 
417 KSP Residual norm 6.38368e-06 
418 KSP Residual norm 6.42936e-06 
419 KSP Residual norm 6.35209e-06 
420 KSP Residual norm 6.21447e-06 
421 KSP Residual norm 6.17952e-06 
422 KSP Residual norm 6.24578e-06 
423 KSP Residual norm 6.43966e-06 
424 KSP Residual norm 6.59257e-06 
425 KSP Residual norm 6.62168e-06 
426 KSP Residual norm 6.75055e-06 
427 KSP Residual norm 7.0143e-06 
428 KSP Residual norm 7.30201e-06 
429 KSP Residual norm 7.59238e-06 
430 KSP Residual norm 7.93583e-06 
431 KSP Residual norm 8.45393e-06 
432 KSP Residual norm 9.16294e-06 
433 KSP Residual norm 1.00354e-05 
434 KSP Residual norm 1.11339e-05 
435 KSP Residual norm 1.23179e-05 
436 KSP Residual norm 1.31653e-05 
437 KSP Residual norm 1.36656e-05 
438 KSP Residual norm 1.36999e-05 
439 KSP Residual norm 1.30963e-05 
440 KSP Residual norm 1.25016e-05 
441 KSP Residual norm 1.21015e-05 
442 KSP Residual norm 1.21538e-05 
443 KSP Residual norm 1.26399e-05 
444 KSP Residual norm 1.31706e-05 
445 KSP Residual norm 1.34304e-05 
446 KSP Residual norm 1.35535e-05 
447 KSP Residual norm 1.40364e-05 
448 KSP Residual norm 1.4455e-05 
449 KSP Residual norm 1.47741e-05 
450 KSP Residual norm 1.53985e-05 
451 KSP Residual norm 1.6399e-05 
452 KSP Residual norm 1.73392e-05 
453 KSP Residual norm 1.8116e-05 
454 KSP Residual norm 1.87515e-05 
455 KSP Residual norm 1.91688e-05 
456 KSP Residual norm 1.99263e-05 
457 KSP Residual norm 2.06046e-05 
458 KSP Residual norm 2.04888e-05 
459 KSP Residual norm 2.0529e-05 
460 KSP Residual norm 2.099e-05 
461 KSP Residual norm 2.16202e-05 
462 KSP Residual norm 2.20467e-05 
463 KSP Residual norm 2.2471e-05 
464 KSP Residual norm 2.28793e-05 
465 KSP Residual norm 2.24217e-05 
466 KSP Residual norm 2.16426e-05 
467 KSP Residual norm 2.06767e-05 
468 KSP Residual norm 1.9024e-05 
469 KSP Residual norm 1.6971e-05 
470 KSP Residual norm 1.52348e-05 
471 KSP Residual norm 1.43004e-05 
472 KSP Residual norm 1.37444e-05 
473 KSP Residual norm 1.29622e-05 
474 KSP Residual norm 1.21577e-05 
475 KSP Residual norm 1.15836e-05 
476 KSP Residual norm 1.11389e-05 
477 KSP Residual norm 1.05051e-05 
478 KSP Residual norm 9.80667e-06 
479 KSP Residual norm 9.37581e-06 
480 KSP Residual norm 9.39164e-06 
481 KSP Residual norm 9.56708e-06 
482 KSP Residual norm 9.51018e-06 
483 KSP Residual norm 9.43511e-06 
484 KSP Residual norm 9.39492e-06 
485 KSP Residual norm 9.34879e-06 
486 KSP Residual norm 9.24401e-06 
487 KSP Residual norm 9.19809e-06 
488 KSP Residual norm 9.25911e-06 
489 KSP Residual norm 9.35661e-06 
490 KSP Residual norm 9.48404e-06 
491 KSP Residual norm 9.52184e-06 
492 KSP Residual norm 9.29364e-06 
493 KSP Residual norm 8.81258e-06 
494 KSP Residual norm 8.51236e-06 
495 KSP Residual norm 8.43145e-06 
496 KSP Residual norm 8.37231e-06 
497 KSP Residual norm 8.23493e-06 
498 KSP Residual norm 8.00242e-06 
499 KSP Residual norm 7.80929e-06 
500 KSP Residual norm 7.4894e-06 
501 KSP Residual norm 7.03542e-06 
502 KSP Residual norm 6.66831e-06 
503 KSP Residual norm 6.41572e-06 
504 KSP Residual norm 6.30283e-06 
505 KSP Residual norm 6.21608e-06 
506 KSP Residual norm 6.23301e-06 
507 KSP Residual norm 6.26208e-06 
508 KSP Residual norm 6.261e-06 
509 KSP Residual norm 6.34473e-06 
510 KSP Residual norm 6.55726e-06 
511 KSP Residual norm 6.99905e-06 
512 KSP Residual norm 7.51847e-06 
513 KSP Residual norm 8.07649e-06 
514 KSP Residual norm 8.71369e-06 
515 KSP Residual norm 9.36895e-06 
516 KSP Residual norm 9.93132e-06 
517 KSP Residual norm 1.04263e-05 
518 KSP Residual norm 1.11243e-05 
519 KSP Residual norm 1.19547e-05 
520 KSP Residual norm 1.29142e-05 
521 KSP Residual norm 1.39309e-05 
522 KSP Residual norm 1.47393e-05 
523 KSP Residual norm 1.51876e-05 
524 KSP Residual norm 1.52321e-05 
525 KSP Residual norm 1.51551e-05 
526 KSP Residual norm 1.52419e-05 
527 KSP Residual norm 1.54028e-05 
528 KSP Residual norm 1.54286e-05 
529 KSP Residual norm 1.51876e-05 
530 KSP Residual norm 1.46504e-05 
531 KSP Residual norm 1.39272e-05 
532 KSP Residual norm 1.30082e-05 
533 KSP Residual norm 1.18811e-05 
534 KSP Residual norm 1.08657e-05 
535 KSP Residual norm 1.01629e-05 
536 KSP Residual norm 9.85905e-06 
537 KSP Residual norm 9.75121e-06 
538 KSP Residual norm 9.86257e-06 
539 KSP Residual norm 1.0127e-05 
540 KSP Residual norm 1.05411e-05 
541 KSP Residual norm 1.11733e-05 
542 KSP Residual norm 1.18274e-05 
543 KSP Residual norm 1.22473e-05 
544 KSP Residual norm 1.2395e-05 
545 KSP Residual norm 1.24687e-05 
546 KSP Residual norm 1.24948e-05 
547 KSP Residual norm 1.24482e-05 
548 KSP Residual norm 1.21875e-05 
549 KSP Residual norm 1.17867e-05 
550 KSP Residual norm 1.1485e-05 
551 KSP Residual norm 1.12582e-05 
552 KSP Residual norm 1.0911e-05 
553 KSP Residual norm 1.04724e-05 
554 KSP Residual norm 1.00565e-05 
555 KSP Residual norm 9.88715e-06 
556 KSP Residual norm 9.85396e-06 
557 KSP Residual norm 9.82945e-06 
558 KSP Residual norm 9.95571e-06 
559 KSP Residual norm 1.02487e-05 
560 KSP Residual norm 1.06962e-05 
561 KSP Residual norm 1.10267e-05 
562 KSP Residual norm 1.11016e-05 
563 KSP Residual norm 1.08438e-05 
564 KSP Residual norm 1.03615e-05 
565 KSP Residual norm 1.00275e-05 
566 KSP Residual norm 9.88924e-06 
567 KSP Residual norm 9.83265e-06 
568 KSP Residual norm 9.84525e-06 
569 KSP Residual norm 9.83187e-06 
570 KSP Residual norm 9.55764e-06 
571 KSP Residual norm 8.89451e-06 
572 KSP Residual norm 8.11914e-06 
573 KSP Residual norm 7.46771e-06 
574 KSP Residual norm 6.90773e-06 
575 KSP Residual norm 6.4834e-06 
576 KSP Residual norm 6.1069e-06 
577 KSP Residual norm 5.68192e-06 
578 KSP Residual norm 5.2462e-06 
579 KSP Residual norm 4.95836e-06 
580 KSP Residual norm 4.82564e-06 
581 KSP Residual norm 4.77662e-06 
582 KSP Residual norm 4.73368e-06 
583 KSP Residual norm 4.75014e-06 
584 KSP Residual norm 4.79653e-06 
585 KSP Residual norm 4.91704e-06 
586 KSP Residual norm 5.12627e-06 
587 KSP Residual norm 5.48817e-06 
588 KSP Residual norm 6.00114e-06 
589 KSP Residual norm 6.48515e-06 
590 KSP Residual norm 6.82145e-06 
591 KSP Residual norm 6.96121e-06 
592 KSP Residual norm 7.0173e-06 
593 KSP Residual norm 7.34799e-06 
594 KSP Residual norm 8.19125e-06 
595 KSP Residual norm 9.39947e-06 
596 KSP Residual norm 1.04372e-05 
597 KSP Residual norm 1.10539e-05 
598 KSP Residual norm 1.15251e-05 
599 KSP Residual norm 1.21532e-05 
600 KSP Residual norm 1.29085e-05 
601 KSP Residual norm 1.38618e-05 
602 KSP Residual norm 1.48163e-05 
603 KSP Residual norm 1.56949e-05 
604 KSP Residual norm 1.63391e-05 
605 KSP Residual norm 1.64956e-05 
606 KSP Residual norm 1.63887e-05 
607 KSP Residual norm 1.62997e-05 
608 KSP Residual norm 1.60823e-05 
609 KSP Residual norm 1.55999e-05 
610 KSP Residual norm 1.49565e-05 
611 KSP Residual norm 1.4144e-05 
612 KSP Residual norm 1.29599e-05 
613 KSP Residual norm 1.17606e-05 
614 KSP Residual norm 1.084e-05 
615 KSP Residual norm 1.01583e-05 
616 KSP Residual norm 9.47007e-06 
617 KSP Residual norm 8.63843e-06 
618 KSP Residual norm 7.68942e-06 
619 KSP Residual norm 6.89481e-06 
620 KSP Residual norm 6.35771e-06 
621 KSP Residual norm 5.98254e-06 
622 KSP Residual norm 5.67058e-06 
623 KSP Residual norm 5.34462e-06 
624 KSP Residual norm 4.94936e-06 
625 KSP Residual norm 4.62061e-06 
626 KSP Residual norm 4.39822e-06 
627 KSP Residual norm 4.28472e-06 
628 KSP Residual norm 4.20274e-06 
629 KSP Residual norm 4.107e-06 
630 KSP Residual norm 3.97554e-06 
631 KSP Residual norm 3.79718e-06 
632 KSP Residual norm 3.58128e-06 
633 KSP Residual norm 3.36886e-06 
634 KSP Residual norm 3.17144e-06 
635 KSP Residual norm 3.02005e-06 
636 KSP Residual norm 2.89671e-06 
637 KSP Residual norm 2.75024e-06 
638 KSP Residual norm 2.6217e-06 
639 KSP Residual norm 2.55028e-06 
640 KSP Residual norm 2.52421e-06 
641 KSP Residual norm 2.54496e-06 
642 KSP Residual norm 2.60859e-06 
643 KSP Residual norm 2.67407e-06 
644 KSP Residual norm 2.76416e-06 
645 KSP Residual norm 2.87083e-06 
646 KSP Residual norm 2.98593e-06 
647 KSP Residual norm 3.10749e-06 
648 KSP Residual norm 3.24585e-06 
649 KSP Residual norm 3.39021e-06 
650 KSP Residual norm 3.52098e-06 
651 KSP Residual norm 3.61359e-06 
652 KSP Residual norm 3.69629e-06 
653 KSP Residual norm 3.77114e-06 
654 KSP Residual norm 3.81974e-06 
655 KSP Residual norm 3.84436e-06 
656 KSP Residual norm 3.83637e-06 
657 KSP Residual norm 3.83544e-06 
658 KSP Residual norm 3.87425e-06 
659 KSP Residual norm 3.95612e-06 
660 KSP Residual norm 4.06237e-06 
661 KSP Residual norm 4.19712e-06 
662 KSP Residual norm 4.31956e-06 
663 KSP Residual norm 4.41902e-06 
664 KSP Residual norm 4.4819e-06 
665 KSP Residual norm 4.54088e-06 
666 KSP Residual norm 4.60683e-06 
667 KSP Residual norm 4.63144e-06 
668 KSP Residual norm 4.56589e-06 
669 KSP Residual norm 4.40624e-06 
670 KSP Residual norm 4.21179e-06 
671 KSP Residual norm 4.0114e-06 
672 KSP Residual norm 3.85619e-06 
673 KSP Residual norm 3.76884e-06 
674 KSP Residual norm 3.75431e-06 
675 KSP Residual norm 3.74611e-06 
676 KSP Residual norm 3.72248e-06 
677 KSP Residual norm 3.74742e-06 
678 KSP Residual norm 3.8565e-06 
679 KSP Residual norm 4.04263e-06 
680 KSP Residual norm 4.28028e-06 
681 KSP Residual norm 4.52893e-06 
682 KSP Residual norm 4.66449e-06 
683 KSP Residual norm 4.63057e-06 
684 KSP Residual norm 4.49945e-06 
685 KSP Residual norm 4.39032e-06 
686 KSP Residual norm 4.3334e-06 
687 KSP Residual norm 4.33442e-06 
688 KSP Residual norm 4.36256e-06 
689 KSP Residual norm 4.34449e-06 
690 KSP Residual norm 4.29354e-06 
691 KSP Residual norm 4.20621e-06 
692 KSP Residual norm 4.06007e-06 
693 KSP Residual norm 3.82325e-06 
694 KSP Residual norm 3.51593e-06 
695 KSP Residual norm 3.21838e-06 
696 KSP Residual norm 3.00514e-06 
697 KSP Residual norm 2.88205e-06 
698 KSP Residual norm 2.8293e-06 
699 KSP Residual norm 2.86476e-06 
700 KSP Residual norm 2.95514e-06 
701 KSP Residual norm 3.09482e-06 
702 KSP Residual norm 3.30513e-06 
703 KSP Residual norm 3.54209e-06 
704 KSP Residual norm 3.77367e-06 
705 KSP Residual norm 4.00326e-06 
706 KSP Residual norm 4.20653e-06 
707 KSP Residual norm 4.36103e-06 
708 KSP Residual norm 4.5079e-06 
709 KSP Residual norm 4.66037e-06 
710 KSP Residual norm 4.8512e-06 
711 KSP Residual norm 5.07223e-06 
712 KSP Residual norm 5.23452e-06 
713 KSP Residual norm 5.34708e-06 
714 KSP Residual norm 5.42269e-06 
715 KSP Residual norm 5.44258e-06 
716 KSP Residual norm 5.39499e-06 
717 KSP Residual norm 5.30326e-06 
718 KSP Residual norm 5.19663e-06 
719 KSP Residual norm 5.10543e-06 
720 KSP Residual norm 5.05199e-06 
721 KSP Residual norm 4.9631e-06 
722 KSP Residual norm 4.81806e-06 
723 KSP Residual norm 4.60714e-06 
724 KSP Residual norm 4.30594e-06 
725 KSP Residual norm 3.97137e-06 
726 KSP Residual norm 3.65999e-06 
727 KSP Residual norm 3.41434e-06 
728 KSP Residual norm 3.24281e-06 
729 KSP Residual norm 3.11884e-06 
730 KSP Residual norm 3.00606e-06 
731 KSP Residual norm 2.89394e-06 
732 KSP Residual norm 2.78633e-06 
733 KSP Residual norm 2.68045e-06 
734 KSP Residual norm 2.59807e-06 
735 KSP Residual norm 2.53108e-06 
736 KSP Residual norm 2.48647e-06 
737 KSP Residual norm 2.49772e-06 
738 KSP Residual norm 2.54381e-06 
739 KSP Residual norm 2.6144e-06 
740 KSP Residual norm 2.71511e-06 
741 KSP Residual norm 2.82017e-06 
742 KSP Residual norm 2.91033e-06 
743 KSP Residual norm 2.99834e-06 
744 KSP Residual norm 3.08925e-06 
745 KSP Residual norm 3.15085e-06 
746 KSP Residual norm 3.16559e-06 
747 KSP Residual norm 3.12425e-06 
748 KSP Residual norm 3.04667e-06 
749 KSP Residual norm 2.96513e-06 
750 KSP Residual norm 2.85514e-06 
751 KSP Residual norm 2.71588e-06 
752 KSP Residual norm 2.5687e-06 
753 KSP Residual norm 2.42195e-06 
754 KSP Residual norm 2.29115e-06 
755 KSP Residual norm 2.18246e-06 
756 KSP Residual norm 2.09677e-06 
757 KSP Residual norm 2.03047e-06 
758 KSP Residual norm 1.99143e-06 
759 KSP Residual norm 1.99346e-06 
760 KSP Residual norm 2.03179e-06 
761 KSP Residual norm 2.09575e-06 
762 KSP Residual norm 2.16546e-06 
763 KSP Residual norm 2.23545e-06 
764 KSP Residual norm 2.31617e-06 
765 KSP Residual norm 2.39232e-06 
766 KSP Residual norm 2.44916e-06 
767 KSP Residual norm 2.48961e-06 
768 KSP Residual norm 2.52666e-06 
769 KSP Residual norm 2.56995e-06 
770 KSP Residual norm 2.61608e-06 
771 KSP Residual norm 2.66421e-06 
772 KSP Residual norm 2.69108e-06 
773 KSP Residual norm 2.67756e-06 
774 KSP Residual norm 2.63946e-06 
775 KSP Residual norm 2.58467e-06 
776 KSP Residual norm 2.52518e-06 
777 KSP Residual norm 2.47659e-06 
778 KSP Residual norm 2.43978e-06 
779 KSP Residual norm 2.40838e-06 
780 KSP Residual norm 2.37215e-06 
781 KSP Residual norm 2.33369e-06 
782 KSP Residual norm 2.29663e-06 
783 KSP Residual norm 2.25992e-06 
784 KSP Residual norm 2.22751e-06 
785 KSP Residual norm 2.19632e-06 
786 KSP Residual norm 2.16768e-06 
787 KSP Residual norm 2.14324e-06 
788 KSP Residual norm 2.12583e-06 
789 KSP Residual norm 2.12822e-06 
790 KSP Residual norm 2.13845e-06 
791 KSP Residual norm 2.13638e-06 
792 KSP Residual norm 2.12237e-06 
793 KSP Residual norm 2.09175e-06 
794 KSP Residual norm 2.03505e-06 
795 KSP Residual norm 1.94512e-06 
796 KSP Residual norm 1.82686e-06 
797 KSP Residual norm 1.69621e-06 
798 KSP Residual norm 1.56194e-06 
799 KSP Residual norm 1.44225e-06 
800 KSP Residual norm 1.35166e-06 
801 KSP Residual norm 1.28452e-06 
802 KSP Residual norm 1.23696e-06 
803 KSP Residual norm 1.20341e-06 
804 KSP Residual norm 1.1738e-06 
805 KSP Residual norm 1.14298e-06 
806 KSP Residual norm 1.10646e-06 
807 KSP Residual norm 1.06698e-06 
808 KSP Residual norm 1.03049e-06 
809 KSP Residual norm 9.97099e-07 
810 KSP Residual norm 9.66542e-07 
811 KSP Residual norm 9.36345e-07 
812 KSP Residual norm 9.08422e-07 
813 KSP Residual norm 8.90346e-07 
814 KSP Residual norm 8.81976e-07 
815 KSP Residual norm 8.79157e-07 
816 KSP Residual norm 8.75843e-07 
817 KSP Residual norm 8.6322e-07 
818 KSP Residual norm 8.39498e-07 
819 KSP Residual norm 8.07283e-07 
820 KSP Residual norm 7.73189e-07 
821 KSP Residual norm 7.45824e-07 
822 KSP Residual norm 7.22421e-07 
823 KSP Residual norm 6.96328e-07 
824 KSP Residual norm 6.67344e-07 
825 KSP Residual norm 6.37797e-07 
826 KSP Residual norm 6.11779e-07 
827 KSP Residual norm 5.90916e-07 
828 KSP Residual norm 5.72028e-07 
829 KSP Residual norm 5.52555e-07 
830 KSP Residual norm 5.32413e-07 
831 KSP Residual norm 5.14408e-07 
832 KSP Residual norm 5.0028e-07 
833 KSP Residual norm 4.8706e-07 
834 KSP Residual norm 4.72769e-07 
835 KSP Residual norm 4.57894e-07 
836 KSP Residual norm 4.4327e-07 
837 KSP Residual norm 4.31545e-07 
838 KSP Residual norm 4.24299e-07 
839 KSP Residual norm 4.19908e-07 
840 KSP Residual norm 4.15864e-07 
841 KSP Residual norm 4.10138e-07 
842 KSP Residual norm 4.02383e-07 
843 KSP Residual norm 3.9277e-07 
844 KSP Residual norm 3.82034e-07 
845 KSP Residual norm 3.7324e-07 
846 KSP Residual norm 3.68085e-07 
847 KSP Residual norm 3.66207e-07 
848 KSP Residual norm 3.67468e-07 
849 KSP Residual norm 3.69332e-07 
850 KSP Residual norm 3.68392e-07 
851 KSP Residual norm 3.65029e-07 
852 KSP Residual norm 3.61175e-07 
853 KSP Residual norm 3.57801e-07 
854 KSP Residual norm 3.5442e-07 
855 KSP Residual norm 3.50028e-07 
856 KSP Residual norm 3.45674e-07 
857 KSP Residual norm 3.42117e-07 
858 KSP Residual norm 3.39107e-07 
859 KSP Residual norm 3.38403e-07 
860 KSP Residual norm 3.40382e-07 
861 KSP Residual norm 3.43235e-07 
862 KSP Residual norm 3.4686e-07 
863 KSP Residual norm 3.50484e-07 
864 KSP Residual norm 3.52608e-07 
865 KSP Residual norm 3.54041e-07 
866 KSP Residual norm 3.54208e-07 
867 KSP Residual norm 3.51093e-07 
868 KSP Residual norm 3.45398e-07 
869 KSP Residual norm 3.38829e-07 
870 KSP Residual norm 3.32559e-07 
871 KSP Residual norm 3.2757e-07 
872 KSP Residual norm 3.24431e-07 
873 KSP Residual norm 3.24324e-07 
874 KSP Residual norm 3.27269e-07 
875 KSP Residual norm 3.31168e-07 
876 KSP Residual norm 3.35434e-07 
877 KSP Residual norm 3.40604e-07 
878 KSP Residual norm 3.4631e-07 
879 KSP Residual norm 3.52719e-07 
880 KSP Residual norm 3.59596e-07 
881 KSP Residual norm 3.66184e-07 
882 KSP Residual norm 3.73292e-07 
883 KSP Residual norm 3.81212e-07 
884 KSP Residual norm 3.89987e-07 
885 KSP Residual norm 4.01775e-07 
886 KSP Residual norm 4.1705e-07 
887 KSP Residual norm 4.33541e-07 
888 KSP Residual norm 4.50343e-07 
889 KSP Residual norm 4.6673e-07 
890 KSP Residual norm 4.81737e-07 
891 KSP Residual norm 4.96499e-07 
892 KSP Residual norm 5.11377e-07 
893 KSP Residual norm 5.24055e-07 
894 KSP Residual norm 5.32019e-07 
895 KSP Residual norm 5.34028e-07 
896 KSP Residual norm 5.31309e-07 
897 KSP Residual norm 5.26581e-07 
898 KSP Residual norm 5.20646e-07 
899 KSP Residual norm 5.12437e-07 
900 KSP Residual norm 5.00795e-07 
901 KSP Residual norm 4.85641e-07 
902 KSP Residual norm 4.69026e-07 
903 KSP Residual norm 4.53502e-07 
904 KSP Residual norm 4.40892e-07 
905 KSP Residual norm 4.32258e-07 
906 KSP Residual norm 4.25638e-07 
907 KSP Residual norm 4.17921e-07 
908 KSP Residual norm 4.10075e-07 
909 KSP Residual norm 4.04223e-07 
910 KSP Residual norm 3.99777e-07 
911 KSP Residual norm 3.97403e-07 
912 KSP Residual norm 3.98307e-07 
913 KSP Residual norm 3.9942e-07 
914 KSP Residual norm 3.97222e-07 
915 KSP Residual norm 3.92804e-07 
916 KSP Residual norm 3.8851e-07 
917 KSP Residual norm 3.85403e-07 
918 KSP Residual norm 3.84286e-07 
919 KSP Residual norm 3.85467e-07 
920 KSP Residual norm 3.88072e-07 
921 KSP Residual norm 3.90194e-07 
922 KSP Residual norm 3.90809e-07 
923 KSP Residual norm 3.91372e-07 
924 KSP Residual norm 3.93319e-07 
925 KSP Residual norm 3.95983e-07 
926 KSP Residual norm 3.98516e-07 
927 KSP Residual norm 4.00375e-07 
928 KSP Residual norm 4.00895e-07 
929 KSP Residual norm 4.01661e-07 
930 KSP Residual norm 4.0534e-07 
931 KSP Residual norm 4.11663e-07 
932 KSP Residual norm 4.18371e-07 
933 KSP Residual norm 4.2332e-07 
934 KSP Residual norm 4.23534e-07 
935 KSP Residual norm 4.17352e-07 
936 KSP Residual norm 4.07751e-07 
937 KSP Residual norm 3.9965e-07 
938 KSP Residual norm 3.96104e-07 
939 KSP Residual norm 3.9757e-07 
940 KSP Residual norm 4.02395e-07 
941 KSP Residual norm 4.08538e-07 
942 KSP Residual norm 4.14886e-07 
943 KSP Residual norm 4.2108e-07 
944 KSP Residual norm 4.28576e-07 
945 KSP Residual norm 4.40199e-07 
946 KSP Residual norm 4.56365e-07 
947 KSP Residual norm 4.74781e-07 
948 KSP Residual norm 4.93445e-07 
949 KSP Residual norm 5.1004e-07 
950 KSP Residual norm 5.21121e-07 
951 KSP Residual norm 5.25458e-07 
952 KSP Residual norm 5.24489e-07 
953 KSP Residual norm 5.19812e-07 
954 KSP Residual norm 5.12729e-07 
955 KSP Residual norm 5.04286e-07 
956 KSP Residual norm 4.95788e-07 
957 KSP Residual norm 4.8953e-07 
958 KSP Residual norm 4.86845e-07 
959 KSP Residual norm 4.8737e-07 
960 KSP Residual norm 4.91297e-07 
961 KSP Residual norm 4.9823e-07 
962 KSP Residual norm 5.05118e-07 
963 KSP Residual norm 5.10551e-07 
964 KSP Residual norm 5.17178e-07 
965 KSP Residual norm 5.26685e-07 
966 KSP Residual norm 5.38209e-07 
967 KSP Residual norm 5.51947e-07 
968 KSP Residual norm 5.68598e-07 
969 KSP Residual norm 5.87085e-07 
970 KSP Residual norm 6.0564e-07 
971 KSP Residual norm 6.22742e-07 
972 KSP Residual norm 6.38001e-07 
973 KSP Residual norm 6.53375e-07 
974 KSP Residual norm 6.70089e-07 
975 KSP Residual norm 6.85898e-07 
976 KSP Residual norm 6.98163e-07 
977 KSP Residual norm 7.04953e-07 
978 KSP Residual norm 7.03351e-07 
979 KSP Residual norm 6.93484e-07 
980 KSP Residual norm 6.80331e-07 
981 KSP Residual norm 6.67546e-07 
982 KSP Residual norm 6.56277e-07 
983 KSP Residual norm 6.49297e-07 
984 KSP Residual norm 6.49385e-07 
985 KSP Residual norm 6.56293e-07 
986 KSP Residual norm 6.69362e-07 
987 KSP Residual norm 6.88696e-07 
988 KSP Residual norm 7.12842e-07 
989 KSP Residual norm 7.39237e-07 
990 KSP Residual norm 7.6493e-07 
991 KSP Residual norm 7.84701e-07 
992 KSP Residual norm 7.92879e-07 
993 KSP Residual norm 7.87614e-07 
994 KSP Residual norm 7.70683e-07 
995 KSP Residual norm 7.46032e-07 
996 KSP Residual norm 7.18786e-07 
997 KSP Residual norm 6.92252e-07 
998 KSP Residual norm 6.67606e-07 
999 KSP Residual norm 6.46781e-07 
1000 KSP Residual norm 6.31225e-07 
1001 KSP Residual norm 6.18845e-07 
1002 KSP Residual norm 6.06419e-07 
1003 KSP Residual norm 5.92706e-07 
1004 KSP Residual norm 5.76708e-07 
1005 KSP Residual norm 5.56925e-07 
1006 KSP Residual norm 5.33947e-07 
1007 KSP Residual norm 5.105e-07 
1008 KSP Residual norm 4.88845e-07 
1009 KSP Residual norm 4.69941e-07 
1010 KSP Residual norm 4.5408e-07 
1011 KSP Residual norm 4.41313e-07 
1012 KSP Residual norm 4.31779e-07 
1013 KSP Residual norm 4.25486e-07 
1014 KSP Residual norm 4.21824e-07 
1015 KSP Residual norm 4.20015e-07 
1016 KSP Residual norm 4.19451e-07 
1017 KSP Residual norm 4.19312e-07 
1018 KSP Residual norm 4.19263e-07 
1019 KSP Residual norm 4.20252e-07 
1020 KSP Residual norm 4.22727e-07 
1021 KSP Residual norm 4.25082e-07 
1022 KSP Residual norm 4.26017e-07 
1023 KSP Residual norm 4.26297e-07 
1024 KSP Residual norm 4.26754e-07 
1025 KSP Residual norm 4.27154e-07 
1026 KSP Residual norm 4.27829e-07 
1027 KSP Residual norm 4.30325e-07 
1028 KSP Residual norm 4.36006e-07 
1029 KSP Residual norm 4.45433e-07 
1030 KSP Residual norm 4.58718e-07 
1031 KSP Residual norm 4.75514e-07 
1032 KSP Residual norm 4.94987e-07 
1033 KSP Residual norm 5.16286e-07 
1034 KSP Residual norm 5.39312e-07 
1035 KSP Residual norm 5.65276e-07 
1036 KSP Residual norm 5.95594e-07 
1037 KSP Residual norm 6.29676e-07 
1038 KSP Residual norm 6.65289e-07 
1039 KSP Residual norm 7.01058e-07 
1040 KSP Residual norm 7.35441e-07 
1041 KSP Residual norm 7.64194e-07 
1042 KSP Residual norm 7.8354e-07 
1043 KSP Residual norm 7.94065e-07 
1044 KSP Residual norm 7.97434e-07 
1045 KSP Residual norm 7.92961e-07 
1046 KSP Residual norm 7.81245e-07 
1047 KSP Residual norm 7.66096e-07 
1048 KSP Residual norm 7.50581e-07 
1049 KSP Residual norm 7.3533e-07 
1050 KSP Residual norm 7.20391e-07 
1051 KSP Residual norm 7.0561e-07 
1052 KSP Residual norm 6.90659e-07 
1053 KSP Residual norm 6.76288e-07 
1054 KSP Residual norm 6.63039e-07 
1055 KSP Residual norm 6.48859e-07 
1056 KSP Residual norm 6.31059e-07 
1057 KSP Residual norm 6.09517e-07 
1058 KSP Residual norm 5.85244e-07 
1059 KSP Residual norm 5.58562e-07 
1060 KSP Residual norm 5.30932e-07 
1061 KSP Residual norm 5.04814e-07 
1062 KSP Residual norm 4.80521e-07 
1063 KSP Residual norm 4.56216e-07 
1064 KSP Residual norm 4.30907e-07 
1065 KSP Residual norm 4.04701e-07 
1066 KSP Residual norm 3.7742e-07 
1067 KSP Residual norm 3.49893e-07 
1068 KSP Residual norm 3.247e-07 
1069 KSP Residual norm 3.03536e-07 
1070 KSP Residual norm 2.85636e-07 
1071 KSP Residual norm 2.69837e-07 
1072 KSP Residual norm 2.56234e-07 
1073 KSP Residual norm 2.45131e-07 
1074 KSP Residual norm 2.36109e-07 
1075 KSP Residual norm 2.28675e-07 
1076 KSP Residual norm 2.22483e-07 
1077 KSP Residual norm 2.16828e-07 
1078 KSP Residual norm 2.11022e-07 
1079 KSP Residual norm 2.05157e-07 
1080 KSP Residual norm 1.99701e-07 
1081 KSP Residual norm 1.94709e-07 
1082 KSP Residual norm 1.90023e-07 
1083 KSP Residual norm 1.8567e-07 
1084 KSP Residual norm 1.81621e-07 
1085 KSP Residual norm 1.77584e-07 
1086 KSP Residual norm 1.73304e-07 
1087 KSP Residual norm 1.68722e-07 
1088 KSP Residual norm 1.63812e-07 
1089 KSP Residual norm 1.58548e-07 
1090 KSP Residual norm 1.52978e-07 
1091 KSP Residual norm 1.47179e-07 
1092 KSP Residual norm 1.4131e-07 
1093 KSP Residual norm 1.35729e-07 
1094 KSP Residual norm 1.30859e-07 
1095 KSP Residual norm 1.26955e-07 
1096 KSP Residual norm 1.24154e-07 
1097 KSP Residual norm 1.22547e-07 
1098 KSP Residual norm 1.22004e-07 
1099 KSP Residual norm 1.22103e-07 
1100 KSP Residual norm 1.22396e-07 
1101 KSP Residual norm 1.22635e-07 
1102 KSP Residual norm 1.22701e-07 
1103 KSP Residual norm 1.22589e-07 
1104 KSP Residual norm 1.22565e-07 
1105 KSP Residual norm 1.23047e-07 
1106 KSP Residual norm 1.24249e-07 
1107 KSP Residual norm 1.261e-07 
1108 KSP Residual norm 1.28415e-07 
1109 KSP Residual norm 1.30891e-07 
1110 KSP Residual norm 1.32966e-07 
1111 KSP Residual norm 1.33935e-07 
1112 KSP Residual norm 1.33287e-07 
1113 KSP Residual norm 1.30936e-07 
1114 KSP Residual norm 1.27228e-07 
1115 KSP Residual norm 1.22793e-07 
1116 KSP Residual norm 1.18249e-07 
1117 KSP Residual norm 1.13991e-07 
1118 KSP Residual norm 1.10243e-07 
1119 KSP Residual norm 1.07162e-07 
1120 KSP Residual norm 1.04789e-07 
1121 KSP Residual norm 1.02978e-07 
1122 KSP Residual norm 1.0146e-07 
1123 KSP Residual norm 9.99835e-08 
1124 KSP Residual norm 9.84288e-08 
1125 KSP Residual norm 9.68757e-08 
1126 KSP Residual norm 9.55128e-08 
1127 KSP Residual norm 9.44095e-08 
1128 KSP Residual norm 9.3464e-08 
1129 KSP Residual norm 9.26399e-08 
1130 KSP Residual norm 9.20668e-08 
1131 KSP Residual norm 9.17668e-08 
1132 KSP Residual norm 9.1494e-08 
1133 KSP Residual norm 9.10116e-08 
1134 KSP Residual norm 9.03067e-08 
1135 KSP Residual norm 8.93941e-08 
1136 KSP Residual norm 8.81826e-08 
1137 KSP Residual norm 8.6698e-08 
1138 KSP Residual norm 8.51323e-08 
1139 KSP Residual norm 8.34866e-08 
1140 KSP Residual norm 8.14919e-08 
1141 KSP Residual norm 7.90492e-08 
1142 KSP Residual norm 7.64278e-08 
1143 KSP Residual norm 7.38524e-08 
1144 KSP Residual norm 7.12217e-08 
1145 KSP Residual norm 6.84376e-08 
1146 KSP Residual norm 6.56903e-08 
1147 KSP Residual norm 6.31997e-08 
1148 KSP Residual norm 6.09103e-08 
1149 KSP Residual norm 5.86411e-08 
1150 KSP Residual norm 5.63662e-08 
1151 KSP Residual norm 5.41758e-08 
1152 KSP Residual norm 5.21038e-08 
1153 KSP Residual norm 5.01665e-08 
1154 KSP Residual norm 4.84657e-08 
1155 KSP Residual norm 4.71198e-08 
1156 KSP Residual norm 4.61604e-08 
1157 KSP Residual norm 4.5553e-08 
1158 KSP Residual norm 4.52283e-08 
1159 KSP Residual norm 4.50243e-08 
1160 KSP Residual norm 4.46807e-08 
1161 KSP Residual norm 4.39986e-08 
1162 KSP Residual norm 4.29812e-08 
1163 KSP Residual norm 4.17655e-08 
1164 KSP Residual norm 4.04668e-08 
1165 KSP Residual norm 3.91435e-08 
1166 KSP Residual norm 3.78541e-08 
1167 KSP Residual norm 3.66734e-08 
1168 KSP Residual norm 3.56622e-08 
1169 KSP Residual norm 3.4847e-08 
1170 KSP Residual norm 3.42164e-08 
1171 KSP Residual norm 3.37245e-08 
1172 KSP Residual norm 3.33159e-08 
1173 KSP Residual norm 3.29582e-08 
1174 KSP Residual norm 3.26325e-08 
1175 KSP Residual norm 3.23013e-08 
1176 KSP Residual norm 3.19208e-08 
1177 KSP Residual norm 3.14898e-08 
1178 KSP Residual norm 3.10695e-08 
1179 KSP Residual norm 3.07509e-08 
1180 KSP Residual norm 3.0611e-08 
1181 KSP Residual norm 3.06849e-08 
1182 KSP Residual norm 3.09479e-08 
1183 KSP Residual norm 3.13284e-08 
1184 KSP Residual norm 3.17645e-08 
1185 KSP Residual norm 3.22528e-08 
1186 KSP Residual norm 3.28286e-08 
1187 KSP Residual norm 3.35152e-08 
1188 KSP Residual norm 3.4324e-08 
1189 KSP Residual norm 3.52878e-08 
1190 KSP Residual norm 3.6441e-08 
1191 KSP Residual norm 3.77607e-08 
1192 KSP Residual norm 3.91597e-08 
1193 KSP Residual norm 4.05476e-08 
1194 KSP Residual norm 4.18712e-08 
1195 KSP Residual norm 4.31054e-08 
1196 KSP Residual norm 4.42574e-08 
1197 KSP Residual norm 4.53815e-08 
1198 KSP Residual norm 4.65345e-08 
1199 KSP Residual norm 4.77099e-08 
1200 KSP Residual norm 4.88708e-08 
1201 KSP Residual norm 5.00539e-08 
1202 KSP Residual norm 5.13795e-08 
1203 KSP Residual norm 5.29261e-08 
1204 KSP Residual norm 5.46496e-08 
1205 KSP Residual norm 5.64826e-08 
1206 KSP Residual norm 5.84568e-08 
1207 KSP Residual norm 6.06526e-08 
1208 KSP Residual norm 6.30432e-08 
1209 KSP Residual norm 6.54536e-08 
1210 KSP Residual norm 6.76786e-08 
1211 KSP Residual norm 6.95919e-08 
1212 KSP Residual norm 7.11279e-08 
1213 KSP Residual norm 7.22083e-08 
1214 KSP Residual norm 7.27456e-08 
1215 KSP Residual norm 7.27378e-08 
1216 KSP Residual norm 7.23426e-08 
1217 KSP Residual norm 7.18102e-08 
1218 KSP Residual norm 7.13105e-08 
1219 KSP Residual norm 7.08572e-08 
1220 KSP Residual norm 7.04328e-08 
1221 KSP Residual norm 7.01324e-08 
1222 KSP Residual norm 7.00922e-08 
1223 KSP Residual norm 7.0281e-08 
1224 KSP Residual norm 7.05137e-08 
1225 KSP Residual norm 7.07459e-08 
1226 KSP Residual norm 7.12423e-08 
1227 KSP Residual norm 7.23391e-08 
1228 KSP Residual norm 7.40908e-08 
1229 KSP Residual norm 7.62642e-08 
1230 KSP Residual norm 7.86446e-08 
1231 KSP Residual norm 8.11736e-08 
1232 KSP Residual norm 8.37625e-08 
1233 KSP Residual norm 8.61599e-08 
1234 KSP Residual norm 8.81689e-08 
1235 KSP Residual norm 8.98942e-08 
1236 KSP Residual norm 9.15868e-08 
1237 KSP Residual norm 9.33009e-08 
1238 KSP Residual norm 9.48923e-08 
1239 KSP Residual norm 9.62942e-08 
1240 KSP Residual norm 9.75783e-08 
1241 KSP Residual norm 9.87231e-08 
1242 KSP Residual norm 9.95199e-08 
1243 KSP Residual norm 9.98267e-08 
1244 KSP Residual norm 9.97704e-08 
1245 KSP Residual norm 9.95658e-08 
1246 KSP Residual norm 9.92602e-08 
1247 KSP Residual norm 9.87967e-08 
1248 KSP Residual norm 9.82503e-08 
1249 KSP Residual norm 9.78384e-08 
1250 KSP Residual norm 9.7691e-08 
1251 KSP Residual norm 9.77415e-08 
1252 KSP Residual norm 9.7868e-08 
1253 KSP Residual norm 9.8024e-08 
1254 KSP Residual norm 9.81897e-08 
1255 KSP Residual norm 9.82975e-08 
1256 KSP Residual norm 9.82887e-08 
1257 KSP Residual norm 9.81912e-08 
1258 KSP Residual norm 9.80538e-08 
1259 KSP Residual norm 9.78336e-08 
1260 KSP Residual norm 9.74373e-08 
1261 KSP Residual norm 9.68684e-08 
1262 KSP Residual norm 9.62647e-08 
1263 KSP Residual norm 9.57854e-08 
1264 KSP Residual norm 9.55207e-08 
1265 KSP Residual norm 9.55321e-08 
1266 KSP Residual norm 9.59131e-08 
1267 KSP Residual norm 9.67474e-08 
1268 KSP Residual norm 9.80183e-08 
1269 KSP Residual norm 9.95948e-08 
1270 KSP Residual norm 1.01315e-07 
1271 KSP Residual norm 1.03074e-07 
1272 KSP Residual norm 1.04834e-07 
1273 KSP Residual norm 1.06557e-07 
1274 KSP Residual norm 1.0816e-07 
1275 KSP Residual norm 1.09521e-07 
1276 KSP Residual norm 1.10566e-07 
1277 KSP Residual norm 1.11338e-07 
1278 KSP Residual norm 1.11954e-07 
1279 KSP Residual norm 1.12445e-07 
1280 KSP Residual norm 1.12691e-07 
1281 KSP Residual norm 1.12569e-07 
1282 KSP Residual norm 1.12154e-07 
1283 KSP Residual norm 1.1168e-07 
1284 KSP Residual norm 1.11268e-07 
1285 KSP Residual norm 1.10771e-07 
1286 KSP Residual norm 1.09961e-07 
1287 KSP Residual norm 1.08826e-07 
1288 KSP Residual norm 1.07589e-07 
1289 KSP Residual norm 1.06441e-07 
1290 KSP Residual norm 1.05351e-07 
1291 KSP Residual norm 1.04204e-07 
1292 KSP Residual norm 1.03036e-07 
1293 KSP Residual norm 1.02007e-07 
1294 KSP Residual norm 1.01163e-07 
1295 KSP Residual norm 1.00352e-07 
1296 KSP Residual norm 9.9422e-08 
1297 KSP Residual norm 9.84404e-08 
1298 KSP Residual norm 9.76678e-08 
1299 KSP Residual norm 9.73003e-08 
1300 KSP Residual norm 9.72921e-08 
1301 KSP Residual norm 9.74482e-08 
1302 KSP Residual norm 9.76361e-08 
1303 KSP Residual norm 9.78494e-08 
1304 KSP Residual norm 9.80843e-08 
1305 KSP Residual norm 9.82174e-08 
1306 KSP Residual norm 9.80423e-08 
1307 KSP Residual norm 9.74106e-08 
1308 KSP Residual norm 9.62977e-08 
1309 KSP Residual norm 9.47199e-08 
1310 KSP Residual norm 9.26289e-08 
1311 KSP Residual norm 8.99453e-08 
1312 KSP Residual norm 8.67108e-08 
1313 KSP Residual norm 8.31694e-08 
1314 KSP Residual norm 7.96467e-08 
1315 KSP Residual norm 7.63459e-08 
1316 KSP Residual norm 7.32884e-08 
1317 KSP Residual norm 7.04388e-08 
1318 KSP Residual norm 6.78316e-08 
1319 KSP Residual norm 6.5563e-08 
1320 KSP Residual norm 6.36945e-08 
1321 KSP Residual norm 6.22038e-08 
1322 KSP Residual norm 6.10324e-08 
1323 KSP Residual norm 6.01453e-08 
1324 KSP Residual norm 5.95132e-08 
1325 KSP Residual norm 5.9066e-08 
1326 KSP Residual norm 5.87219e-08 
1327 KSP Residual norm 5.84808e-08 
1328 KSP Residual norm 5.84487e-08 
1329 KSP Residual norm 5.87329e-08 
1330 KSP Residual norm 5.93218e-08 
1331 KSP Residual norm 6.0108e-08 
1332 KSP Residual norm 6.10295e-08 
1333 KSP Residual norm 6.21419e-08 
1334 KSP Residual norm 6.35252e-08 
1335 KSP Residual norm 6.51512e-08 
1336 KSP Residual norm 6.68953e-08 
1337 KSP Residual norm 6.86814e-08 
1338 KSP Residual norm 7.05584e-08 
1339 KSP Residual norm 7.26011e-08 
1340 KSP Residual norm 7.47724e-08 
1341 KSP Residual norm 7.69493e-08 
1342 KSP Residual norm 7.90719e-08 
1343 KSP Residual norm 8.11886e-08 
1344 KSP Residual norm 8.33172e-08 
1345 KSP Residual norm 8.53273e-08 
1346 KSP Residual norm 8.70571e-08 
1347 KSP Residual norm 8.85488e-08 
1348 KSP Residual norm 9.00928e-08 
1349 KSP Residual norm 9.19842e-08 
1350 KSP Residual norm 9.42531e-08 
1351 KSP Residual norm 9.66713e-08 
1352 KSP Residual norm 9.89934e-08 
1353 KSP Residual norm 1.0112e-07 
1354 KSP Residual norm 1.03018e-07 
1355 KSP Residual norm 1.04564e-07 
1356 KSP Residual norm 1.05549e-07 
1357 KSP Residual norm 1.05849e-07 
1358 KSP Residual norm 1.05512e-07 
1359 KSP Residual norm 1.04629e-07 
1360 KSP Residual norm 1.03188e-07 
1361 KSP Residual norm 1.01125e-07 
1362 KSP Residual norm 9.85171e-08 
1363 KSP Residual norm 9.56433e-08 
1364 KSP Residual norm 9.28407e-08 
1365 KSP Residual norm 9.02995e-08 
1366 KSP Residual norm 8.80145e-08 
1367 KSP Residual norm 8.59077e-08 
1368 KSP Residual norm 8.39539e-08 
1369 KSP Residual norm 8.21891e-08 
1370 KSP Residual norm 8.06365e-08 
1371 KSP Residual norm 7.92632e-08 
1372 KSP Residual norm 7.80162e-08 
1373 KSP Residual norm 7.68885e-08 
1374 KSP Residual norm 7.59341e-08 
1375 KSP Residual norm 7.52192e-08 
1376 KSP Residual norm 7.47668e-08 
1377 KSP Residual norm 7.45554e-08 
1378 KSP Residual norm 7.45671e-08 
1379 KSP Residual norm 7.48244e-08 
1380 KSP Residual norm 7.53671e-08 
1381 KSP Residual norm 7.61872e-08 
1382 KSP Residual norm 7.71956e-08 
1383 KSP Residual norm 7.82707e-08 
1384 KSP Residual norm 7.93505e-08 
1385 KSP Residual norm 8.04739e-08 
1386 KSP Residual norm 8.17172e-08 
1387 KSP Residual norm 8.30808e-08 
1388 KSP Residual norm 8.44545e-08 
1389 KSP Residual norm 8.5711e-08 
1390 KSP Residual norm 8.68294e-08 
1391 KSP Residual norm 8.79158e-08 
1392 KSP Residual norm 8.91042e-08 
1393 KSP Residual norm 9.04537e-08 
1394 KSP Residual norm 9.19449e-08 
1395 KSP Residual norm 9.35483e-08 
1396 KSP Residual norm 9.52542e-08 
1397 KSP Residual norm 9.70231e-08 
1398 KSP Residual norm 9.87322e-08 
1399 KSP Residual norm 1.00219e-07 
1400 KSP Residual norm 1.01396e-07 
1401 KSP Residual norm 1.02293e-07 
1402 KSP Residual norm 1.02976e-07 
1403 KSP Residual norm 1.03425e-07 
1404 KSP Residual norm 1.03546e-07 
1405 KSP Residual norm 1.03304e-07 
1406 KSP Residual norm 1.02821e-07 
1407 KSP Residual norm 1.0232e-07 
1408 KSP Residual norm 1.01972e-07 
1409 KSP Residual norm 1.018e-07 
1410 KSP Residual norm 1.01745e-07 
1411 KSP Residual norm 1.01802e-07 
1412 KSP Residual norm 1.02063e-07 
1413 KSP Residual norm 1.02645e-07 
1414 KSP Residual norm 1.03576e-07 
1415 KSP Residual norm 1.04788e-07 
1416 KSP Residual norm 1.06212e-07 
1417 KSP Residual norm 1.07877e-07 
1418 KSP Residual norm 1.09904e-07 
1419 KSP Residual norm 1.12405e-07 
1420 KSP Residual norm 1.15383e-07 
1421 KSP Residual norm 1.18719e-07 
1422 KSP Residual norm 1.2226e-07 
1423 KSP Residual norm 1.2591e-07 
1424 KSP Residual norm 1.29647e-07 
1425 KSP Residual norm 1.33452e-07 
1426 KSP Residual norm 1.37218e-07 
1427 KSP Residual norm 1.40714e-07 
1428 KSP Residual norm 1.43656e-07 
1429 KSP Residual norm 1.45819e-07 
1430 KSP Residual norm 1.47099e-07 
1431 KSP Residual norm 1.47482e-07 
1432 KSP Residual norm 1.46992e-07 
1433 KSP Residual norm 1.45715e-07 
1434 KSP Residual norm 1.43845e-07 
1435 KSP Residual norm 1.41668e-07 
1436 KSP Residual norm 1.39421e-07 
1437 KSP Residual norm 1.37161e-07 
1438 KSP Residual norm 1.34797e-07 
1439 KSP Residual norm 1.32283e-07 
1440 KSP Residual norm 1.29776e-07 
1441 KSP Residual norm 1.27568e-07 
1442 KSP Residual norm 1.25837e-07 
1443 KSP Residual norm 1.24477e-07 
1444 KSP Residual norm 1.2319e-07 
1445 KSP Residual norm 1.21747e-07 
1446 KSP Residual norm 1.20163e-07 
1447 KSP Residual norm 1.1863e-07 
1448 KSP Residual norm 1.17266e-07 
1449 KSP Residual norm 1.15959e-07 
1450 KSP Residual norm 1.14472e-07 
1451 KSP Residual norm 1.12708e-07 
1452 KSP Residual norm 1.10826e-07 
1453 KSP Residual norm 1.09104e-07 
1454 KSP Residual norm 1.07731e-07 
1455 KSP Residual norm 1.06735e-07 
1456 KSP Residual norm 1.06079e-07 
1457 KSP Residual norm 1.0579e-07 
1458 KSP Residual norm 1.05951e-07 
1459 KSP Residual norm 1.0658e-07 
1460 KSP Residual norm 1.0755e-07 
1461 KSP Residual norm 1.08658e-07 
1462 KSP Residual norm 1.09789e-07 
1463 KSP Residual norm 1.11e-07 
1464 KSP Residual norm 1.12423e-07 
1465 KSP Residual norm 1.14101e-07 
1466 KSP Residual norm 1.15929e-07 
1467 KSP Residual norm 1.1777e-07 
1468 KSP Residual norm 1.19619e-07 
1469 KSP Residual norm 1.21626e-07 
1470 KSP Residual norm 1.23969e-07 
1471 KSP Residual norm 1.26685e-07 
1472 KSP Residual norm 1.29646e-07 
1473 KSP Residual norm 1.32665e-07 
1474 KSP Residual norm 1.35635e-07 
1475 KSP Residual norm 1.38544e-07 
1476 KSP Residual norm 1.41376e-07 
1477 KSP Residual norm 1.44038e-07 
1478 KSP Residual norm 1.46391e-07 
1479 KSP Residual norm 1.48363e-07 
1480 KSP Residual norm 1.49995e-07 
1481 KSP Residual norm 1.5138e-07 
1482 KSP Residual norm 1.52545e-07 
1483 KSP Residual norm 1.53429e-07 
1484 KSP Residual norm 1.53958e-07 
1485 KSP Residual norm 1.54167e-07 
1486 KSP Residual norm 1.54206e-07 
1487 KSP Residual norm 1.54251e-07 
1488 KSP Residual norm 1.54391e-07 
1489 KSP Residual norm 1.54607e-07 
1490 KSP Residual norm 1.54846e-07 
1491 KSP Residual norm 1.55098e-07 
1492 KSP Residual norm 1.55376e-07 
1493 KSP Residual norm 1.55626e-07 
1494 KSP Residual norm 1.55674e-07 
1495 KSP Residual norm 1.55297e-07 
1496 KSP Residual norm 1.54392e-07 
1497 KSP Residual norm 1.53107e-07 
1498 KSP Residual norm 1.51775e-07 
1499 KSP Residual norm 1.50702e-07 
1500 KSP Residual norm 1.4997e-07 
1501 KSP Residual norm 1.49435e-07 
1502 KSP Residual norm 1.48913e-07 
1503 KSP Residual norm 1.48389e-07 
1504 KSP Residual norm 1.48063e-07 
1505 KSP Residual norm 1.48203e-07 
1506 KSP Residual norm 1.48934e-07 
1507 KSP Residual norm 1.50134e-07 
1508 KSP Residual norm 1.51541e-07 
1509 KSP Residual norm 1.52933e-07 
1510 KSP Residual norm 1.54243e-07 
1511 KSP Residual norm 1.555e-07 
1512 KSP Residual norm 1.56684e-07 
1513 KSP Residual norm 1.57645e-07 
1514 KSP Residual norm 1.58196e-07 
1515 KSP Residual norm 1.58253e-07 
1516 KSP Residual norm 1.57891e-07 
1517 KSP Residual norm 1.57248e-07 
1518 KSP Residual norm 1.56385e-07 
1519 KSP Residual norm 1.55264e-07 
1520 KSP Residual norm 1.53851e-07 
1521 KSP Residual norm 1.52245e-07 
1522 KSP Residual norm 1.50669e-07 
1523 KSP Residual norm 1.49337e-07 
1524 KSP Residual norm 1.48311e-07 
1525 KSP Residual norm 1.47507e-07 
1526 KSP Residual norm 1.4682e-07 
1527 KSP Residual norm 1.46249e-07 
1528 KSP Residual norm 1.45915e-07 
1529 KSP Residual norm 1.4594e-07 
1530 KSP Residual norm 1.46299e-07 
1531 KSP Residual norm 1.468e-07 
1532 KSP Residual norm 1.47201e-07 
1533 KSP Residual norm 1.47366e-07 
1534 KSP Residual norm 1.47316e-07 
1535 KSP Residual norm 1.47153e-07 
1536 KSP Residual norm 1.46917e-07 
1537 KSP Residual norm 1.46518e-07 
1538 KSP Residual norm 1.45792e-07 
1539 KSP Residual norm 1.44637e-07 
1540 KSP Residual norm 1.43107e-07 
1541 KSP Residual norm 1.41399e-07 
1542 KSP Residual norm 1.39748e-07 
1543 KSP Residual norm 1.38311e-07 
1544 KSP Residual norm 1.37106e-07 
1545 KSP Residual norm 1.36054e-07 
1546 KSP Residual norm 1.35048e-07 
1547 KSP Residual norm 1.34021e-07 
1548 KSP Residual norm 1.3296e-07 
1549 KSP Residual norm 1.31874e-07 
1550 KSP Residual norm 1.30746e-07 
1551 KSP Residual norm 1.29514e-07 
1552 KSP Residual norm 1.28106e-07 
1553 KSP Residual norm 1.26492e-07 
1554 KSP Residual norm 1.24709e-07 
1555 KSP Residual norm 1.22825e-07 
1556 KSP Residual norm 1.20894e-07 
1557 KSP Residual norm 1.18925e-07 
1558 KSP Residual norm 1.16901e-07 
1559 KSP Residual norm 1.1482e-07 
1560 KSP Residual norm 1.12718e-07 
1561 KSP Residual norm 1.10642e-07 
1562 KSP Residual norm 1.08617e-07 
1563 KSP Residual norm 1.06638e-07 
1564 KSP Residual norm 1.04709e-07 
1565 KSP Residual norm 1.02887e-07 
1566 KSP Residual norm 1.01272e-07 
1567 KSP Residual norm 9.99404e-08 
1568 KSP Residual norm 9.88823e-08 
1569 KSP Residual norm 9.80004e-08 
1570 KSP Residual norm 9.71826e-08 
1571 KSP Residual norm 9.63954e-08 
1572 KSP Residual norm 9.57209e-08 
1573 KSP Residual norm 9.52973e-08 
1574 KSP Residual norm 9.52035e-08 
1575 KSP Residual norm 9.53848e-08 
1576 KSP Residual norm 9.56858e-08 
1577 KSP Residual norm 9.59584e-08 
1578 KSP Residual norm 9.61498e-08 
1579 KSP Residual norm 9.63011e-08 
1580 KSP Residual norm 9.64651e-08 
1581 KSP Residual norm 9.66239e-08 
1582 KSP Residual norm 9.66854e-08 
1583 KSP Residual norm 9.65581e-08 
1584 KSP Residual norm 9.62298e-08 
1585 KSP Residual norm 9.57755e-08 
1586 KSP Residual norm 9.52981e-08 
1587 KSP Residual norm 9.48637e-08 
1588 KSP Residual norm 9.44922e-08 
1589 KSP Residual norm 9.41976e-08 
1590 KSP Residual norm 9.40272e-08 
1591 KSP Residual norm 9.40474e-08 
1592 KSP Residual norm 9.42867e-08 
1593 KSP Residual norm 9.46978e-08 
1594 KSP Residual norm 9.51874e-08 
1595 KSP Residual norm 9.56974e-08 
1596 KSP Residual norm 9.62669e-08 
1597 KSP Residual norm 9.70145e-08 
1598 KSP Residual norm 9.80421e-08 
1599 KSP Residual norm 9.93325e-08 
1600 KSP Residual norm 1.00728e-07 
1601 KSP Residual norm 1.02022e-07 
1602 KSP Residual norm 1.0309e-07 
1603 KSP Residual norm 1.03962e-07 
1604 KSP Residual norm 1.04773e-07 
1605 KSP Residual norm 1.05633e-07 
1606 KSP Residual norm 1.06545e-07 
1607 KSP Residual norm 1.07414e-07 
1608 KSP Residual norm 1.08148e-07 
1609 KSP Residual norm 1.08752e-07 
1610 KSP Residual norm 1.09344e-07 
1611 KSP Residual norm 1.10081e-07 
1612 KSP Residual norm 1.11054e-07 
1613 KSP Residual norm 1.12242e-07 
1614 KSP Residual norm 1.13556e-07 
1615 KSP Residual norm 1.14933e-07 
1616 KSP Residual norm 1.16405e-07 
1617 KSP Residual norm 1.18075e-07 
1618 KSP Residual norm 1.20053e-07 
1619 KSP Residual norm 1.22381e-07 
1620 KSP Residual norm 1.25017e-07 
1621 KSP Residual norm 1.27886e-07 
1622 KSP Residual norm 1.30935e-07 
1623 KSP Residual norm 1.34163e-07 
1624 KSP Residual norm 1.37585e-07 
1625 KSP Residual norm 1.41161e-07 
1626 KSP Residual norm 1.44775e-07 
1627 KSP Residual norm 1.48273e-07 
1628 KSP Residual norm 1.5156e-07 
1629 KSP Residual norm 1.54675e-07 
1630 KSP Residual norm 1.57774e-07 
1631 KSP Residual norm 1.6103e-07 
1632 KSP Residual norm 1.64521e-07 
1633 KSP Residual norm 1.6818e-07 
1634 KSP Residual norm 1.71844e-07 
1635 KSP Residual norm 1.75371e-07 
1636 KSP Residual norm 1.7872e-07 
1637 KSP Residual norm 1.81949e-07 
1638 KSP Residual norm 1.8513e-07 
1639 KSP Residual norm 1.88262e-07 
1640 KSP Residual norm 1.91269e-07 
1641 KSP Residual norm 1.94084e-07 
1642 KSP Residual norm 1.96731e-07 
1643 KSP Residual norm 1.9934e-07 
1644 KSP Residual norm 2.02034e-07 
1645 KSP Residual norm 2.04802e-07 
1646 KSP Residual norm 2.07461e-07 
1647 KSP Residual norm 2.09752e-07 
1648 KSP Residual norm 2.1152e-07 
1649 KSP Residual norm 2.12814e-07 
1650 KSP Residual norm 2.13853e-07 
1651 KSP Residual norm 2.1484e-07 
1652 KSP Residual norm 2.15802e-07 
1653 KSP Residual norm 2.16562e-07 
1654 KSP Residual norm 2.16892e-07 
1655 KSP Residual norm 2.16713e-07 
1656 KSP Residual norm 2.16186e-07 
1657 KSP Residual norm 2.1563e-07 
1658 KSP Residual norm 2.15342e-07 
1659 KSP Residual norm 2.15441e-07 
1660 KSP Residual norm 2.15869e-07 
1661 KSP Residual norm 2.16514e-07 
1662 KSP Residual norm 2.17342e-07 
1663 KSP Residual norm 2.1843e-07 
1664 KSP Residual norm 2.19863e-07 
1665 KSP Residual norm 2.21608e-07 
1666 KSP Residual norm 2.23467e-07 
1667 KSP Residual norm 2.25173e-07 
1668 KSP Residual norm 2.26547e-07 
1669 KSP Residual norm 2.27606e-07 
1670 KSP Residual norm 2.28519e-07 
1671 KSP Residual norm 2.29448e-07 
1672 KSP Residual norm 2.30378e-07 
1673 KSP Residual norm 2.31097e-07 
1674 KSP Residual norm 2.31316e-07 
1675 KSP Residual norm 2.30856e-07 
1676 KSP Residual norm 2.29757e-07 
1677 KSP Residual norm 2.28226e-07 
1678 KSP Residual norm 2.26478e-07 
1679 KSP Residual norm 2.24582e-07 
1680 KSP Residual norm 2.22434e-07 
1681 KSP Residual norm 2.19866e-07 
1682 KSP Residual norm 2.16817e-07 
1683 KSP Residual norm 2.13423e-07 
1684 KSP Residual norm 2.09986e-07 
1685 KSP Residual norm 2.0682e-07 
1686 KSP Residual norm 2.04094e-07 
1687 KSP Residual norm 2.01769e-07 
1688 KSP Residual norm 1.99668e-07 
1689 KSP Residual norm 1.97609e-07 
1690 KSP Residual norm 1.9553e-07 
1691 KSP Residual norm 1.93505e-07 
1692 KSP Residual norm 1.91675e-07 
1693 KSP Residual norm 1.90118e-07 
1694 KSP Residual norm 1.88765e-07 
1695 KSP Residual norm 1.87417e-07 
1696 KSP Residual norm 1.85842e-07 
1697 KSP Residual norm 1.83893e-07 
1698 KSP Residual norm 1.81574e-07 
1699 KSP Residual norm 1.79005e-07 
1700 KSP Residual norm 1.76333e-07 
1701 KSP Residual norm 1.7365e-07 
1702 KSP Residual norm 1.70973e-07 
1703 KSP Residual norm 1.6829e-07 
1704 KSP Residual norm 1.6562e-07 
1705 KSP Residual norm 1.63042e-07 
1706 KSP Residual norm 1.60652e-07 
1707 KSP Residual norm 1.58498e-07 
1708 KSP Residual norm 1.56554e-07 
1709 KSP Residual norm 1.54736e-07 
1710 KSP Residual norm 1.52974e-07 
1711 KSP Residual norm 1.51265e-07 
1712 KSP Residual norm 1.49673e-07 
1713 KSP Residual norm 1.48278e-07 
1714 KSP Residual norm 1.47098e-07 
1715 KSP Residual norm 1.46071e-07 
1716 KSP Residual norm 1.45093e-07 
1717 KSP Residual norm 1.44101e-07 
1718 KSP Residual norm 1.43133e-07 
1719 KSP Residual norm 1.4231e-07 
1720 KSP Residual norm 1.41751e-07 
1721 KSP Residual norm 1.41467e-07 
1722 KSP Residual norm 1.41325e-07 
1723 KSP Residual norm 1.41117e-07 
1724 KSP Residual norm 1.40671e-07 
1725 KSP Residual norm 1.39949e-07 
1726 KSP Residual norm 1.3905e-07 
1727 KSP Residual norm 1.38138e-07 
1728 KSP Residual norm 1.37328e-07 
1729 KSP Residual norm 1.36617e-07 
1730 KSP Residual norm 1.35906e-07 
1731 KSP Residual norm 1.35082e-07 
1732 KSP Residual norm 1.34102e-07 
1733 KSP Residual norm 1.33017e-07 
1734 KSP Residual norm 1.31914e-07 
1735 KSP Residual norm 1.30843e-07 
1736 KSP Residual norm 1.29767e-07 
1737 KSP Residual norm 1.2859e-07 
1738 KSP Residual norm 1.27227e-07 
1739 KSP Residual norm 1.25665e-07 
1740 KSP Residual norm 1.23974e-07 
1741 KSP Residual norm 1.22265e-07 
1742 KSP Residual norm 1.20629e-07 
1743 KSP Residual norm 1.19107e-07 
1744 KSP Residual norm 1.17695e-07 
1745 KSP Residual norm 1.16391e-07 
1746 KSP Residual norm 1.15225e-07 
1747 KSP Residual norm 1.1425e-07 
1748 KSP Residual norm 1.13509e-07 
1749 KSP Residual norm 1.12993e-07 
1750 KSP Residual norm 1.12639e-07 
1751 KSP Residual norm 1.12368e-07 
1752 KSP Residual norm 1.12131e-07 
1753 KSP Residual norm 1.11943e-07 
1754 KSP Residual norm 1.11864e-07 
1755 KSP Residual norm 1.11949e-07 
1756 KSP Residual norm 1.12198e-07 
1757 KSP Residual norm 1.12542e-07 
1758 KSP Residual norm 1.12882e-07 
1759 KSP Residual norm 1.13155e-07 
1760 KSP Residual norm 1.13381e-07 
1761 KSP Residual norm 1.13667e-07 
1762 KSP Residual norm 1.14147e-07 
1763 KSP Residual norm 1.14914e-07 
1764 KSP Residual norm 1.15955e-07 
1765 KSP Residual norm 1.17161e-07 
1766 KSP Residual norm 1.18386e-07 
1767 KSP Residual norm 1.19523e-07 
1768 KSP Residual norm 1.20556e-07 
1769 KSP Residual norm 1.2155e-07 
1770 KSP Residual norm 1.22601e-07 
1771 KSP Residual norm 1.2377e-07 
1772 KSP Residual norm 1.25049e-07 
1773 KSP Residual norm 1.26379e-07 
1774 KSP Residual norm 1.27696e-07 
1775 KSP Residual norm 1.28978e-07 
1776 KSP Residual norm 1.30263e-07 
1777 KSP Residual norm 1.3162e-07 
1778 KSP Residual norm 1.33099e-07 
1779 KSP Residual norm 1.34693e-07 
1780 KSP Residual norm 1.36341e-07 
1781 KSP Residual norm 1.37966e-07 
1782 KSP Residual norm 1.39523e-07 
1783 KSP Residual norm 1.41023e-07 
1784 KSP Residual norm 1.42511e-07 
1785 KSP Residual norm 1.44014e-07 
1786 KSP Residual norm 1.45503e-07 
1787 KSP Residual norm 1.46888e-07 
1788 KSP Residual norm 1.48076e-07 
1789 KSP Residual norm 1.49033e-07 
1790 KSP Residual norm 1.49836e-07 
1791 KSP Residual norm 1.50655e-07 
1792 KSP Residual norm 1.51675e-07 
1793 KSP Residual norm 1.5301e-07 
1794 KSP Residual norm 1.54643e-07 
1795 KSP Residual norm 1.56448e-07 
1796 KSP Residual norm 1.58273e-07 
1797 KSP Residual norm 1.60031e-07 
1798 KSP Residual norm 1.6175e-07 
1799 KSP Residual norm 1.63538e-07 
1800 KSP Residual norm 1.65508e-07 
1801 KSP Residual norm 1.67684e-07 
1802 KSP Residual norm 1.69977e-07 
1803 KSP Residual norm 1.72228e-07 
1804 KSP Residual norm 1.74312e-07 
1805 KSP Residual norm 1.76204e-07 
1806 KSP Residual norm 1.78001e-07 
1807 KSP Residual norm 1.79854e-07 
1808 KSP Residual norm 1.81872e-07 
1809 KSP Residual norm 1.84059e-07 
1810 KSP Residual norm 1.86307e-07 
1811 KSP Residual norm 1.88472e-07 
1812 KSP Residual norm 1.9046e-07 
1813 KSP Residual norm 1.92286e-07 
1814 KSP Residual norm 1.94052e-07 
1815 KSP Residual norm 1.95866e-07 
1816 KSP Residual norm 1.9776e-07 
1817 KSP Residual norm 1.99651e-07 
1818 KSP Residual norm 2.01386e-07 
1819 KSP Residual norm 2.02819e-07 
1820 KSP Residual norm 2.03884e-07 
1821 KSP Residual norm 2.04615e-07 
1822 KSP Residual norm 2.05104e-07 
1823 KSP Residual norm 2.0543e-07 
1824 KSP Residual norm 2.05606e-07 
1825 KSP Residual norm 2.05577e-07 
1826 KSP Residual norm 2.05261e-07 
1827 KSP Residual norm 2.04613e-07 
1828 KSP Residual norm 2.03656e-07 
1829 KSP Residual norm 2.02457e-07 
1830 KSP Residual norm 2.01082e-07 
1831 KSP Residual norm 1.99544e-07 
1832 KSP Residual norm 1.97803e-07 
1833 KSP Residual norm 1.95803e-07 
1834 KSP Residual norm 1.93527e-07 
1835 KSP Residual norm 1.91034e-07 
1836 KSP Residual norm 1.8845e-07 
1837 KSP Residual norm 1.85911e-07 
1838 KSP Residual norm 1.83489e-07 
1839 KSP Residual norm 1.81144e-07 
1840 KSP Residual norm 1.7874e-07 
1841 KSP Residual norm 1.76116e-07 
1842 KSP Residual norm 1.73169e-07 
1843 KSP Residual norm 1.6992e-07 
1844 KSP Residual norm 1.6651e-07 
1845 KSP Residual norm 1.63147e-07 
1846 KSP Residual norm 1.60015e-07 
1847 KSP Residual norm 1.57202e-07 
1848 KSP Residual norm 1.54672e-07 
1849 KSP Residual norm 1.52307e-07 
1850 KSP Residual norm 1.49984e-07 
1851 KSP Residual norm 1.4764e-07 
1852 KSP Residual norm 1.45304e-07 
1853 KSP Residual norm 1.43076e-07 
1854 KSP Residual norm 1.41057e-07 
1855 KSP Residual norm 1.39296e-07 
1856 KSP Residual norm 1.37751e-07 
1857 KSP Residual norm 1.36312e-07 
1858 KSP Residual norm 1.34858e-07 
1859 KSP Residual norm 1.33315e-07 
1860 KSP Residual norm 1.31685e-07 
1861 KSP Residual norm 1.30028e-07 
1862 KSP Residual norm 1.28412e-07 
1863 KSP Residual norm 1.26861e-07 
1864 KSP Residual norm 1.2533e-07 
1865 KSP Residual norm 1.23732e-07 
1866 KSP Residual norm 1.21989e-07 
1867 KSP Residual norm 1.20078e-07 
1868 KSP Residual norm 1.1805e-07 
1869 KSP Residual norm 1.16002e-07 
1870 KSP Residual norm 1.14027e-07 
1871 KSP Residual norm 1.12164e-07 
1872 KSP Residual norm 1.10397e-07 
1873 KSP Residual norm 1.08671e-07 
1874 KSP Residual norm 1.06939e-07 
1875 KSP Residual norm 1.05199e-07 
1876 KSP Residual norm 1.03488e-07 
1877 KSP Residual norm 1.0186e-07 
1878 KSP Residual norm 1.00341e-07 
1879 KSP Residual norm 9.89112e-08 
1880 KSP Residual norm 9.75162e-08 
1881 KSP Residual norm 9.61023e-08 
1882 KSP Residual norm 9.46575e-08 
1883 KSP Residual norm 9.32268e-08 
1884 KSP Residual norm 9.18929e-08 
1885 KSP Residual norm 9.07299e-08 
1886 KSP Residual norm 8.97572e-08 
1887 KSP Residual norm 8.89227e-08 
1888 KSP Residual norm 8.81261e-08 
1889 KSP Residual norm 8.72712e-08 
1890 KSP Residual norm 8.63164e-08 
1891 KSP Residual norm 8.52959e-08 
1892 KSP Residual norm 8.42975e-08 
1893 KSP Residual norm 8.34081e-08 
1894 KSP Residual norm 8.26595e-08 
1895 KSP Residual norm 8.20053e-08 
1896 KSP Residual norm 8.13458e-08 
1897 KSP Residual norm 8.05808e-08 
1898 KSP Residual norm 7.96621e-08 
1899 KSP Residual norm 7.86164e-08 
1900 KSP Residual norm 7.75289e-08 
1901 KSP Residual norm 7.64967e-08 
1902 KSP Residual norm 7.55787e-08 
1903 KSP Residual norm 7.47679e-08 
1904 KSP Residual norm 7.4002e-08 
1905 KSP Residual norm 7.32023e-08 
1906 KSP Residual norm 7.23188e-08 
1907 KSP Residual norm 7.13554e-08 
1908 KSP Residual norm 7.03638e-08 
1909 KSP Residual norm 6.94119e-08 
1910 KSP Residual norm 6.85454e-08 
1911 KSP Residual norm 6.77646e-08 
1912 KSP Residual norm 6.70292e-08 
1913 KSP Residual norm 6.62854e-08 
1914 KSP Residual norm 6.54981e-08 
1915 KSP Residual norm 6.46704e-08 
1916 KSP Residual norm 6.38414e-08 
1917 KSP Residual norm 6.30661e-08 
1918 KSP Residual norm 6.2389e-08 
1919 KSP Residual norm 6.18273e-08 
1920 KSP Residual norm 6.13683e-08 
1921 KSP Residual norm 6.09838e-08 
1922 KSP Residual norm 6.06476e-08 
1923 KSP Residual norm 6.03495e-08 
1924 KSP Residual norm 6.0097e-08 
1925 KSP Residual norm 5.99067e-08 
1926 KSP Residual norm 5.97918e-08 
1927 KSP Residual norm 5.97531e-08 
1928 KSP Residual norm 5.97798e-08 
1929 KSP Residual norm 5.98582e-08 
1930 KSP Residual norm 5.99816e-08 
1931 KSP Residual norm 6.01555e-08 
1932 KSP Residual norm 6.0393e-08 
1933 KSP Residual norm 6.07038e-08 
1934 KSP Residual norm 6.1083e-08 
1935 KSP Residual norm 6.1508e-08 
1936 KSP Residual norm 6.19451e-08 
1937 KSP Residual norm 6.23636e-08 
1938 KSP Residual norm 6.27502e-08 
1939 KSP Residual norm 6.31165e-08 
1940 KSP Residual norm 6.34944e-08 
1941 KSP Residual norm 6.39191e-08 
1942 KSP Residual norm 6.44087e-08 
1943 KSP Residual norm 6.49497e-08 
1944 KSP Residual norm 6.54995e-08 
1945 KSP Residual norm 6.60029e-08 
1946 KSP Residual norm 6.64168e-08 
1947 KSP Residual norm 6.6729e-08 
1948 KSP Residual norm 6.69639e-08 
1949 KSP Residual norm 6.71715e-08 
1950 KSP Residual norm 6.74052e-08 
1951 KSP Residual norm 6.76994e-08 
1952 KSP Residual norm 6.80561e-08 
1953 KSP Residual norm 6.84482e-08 
1954 KSP Residual norm 6.88359e-08 
1955 KSP Residual norm 6.91883e-08 
1956 KSP Residual norm 6.94975e-08 
1957 KSP Residual norm 6.97791e-08 
1958 KSP Residual norm 7.00575e-08 
1959 KSP Residual norm 7.03462e-08 
1960 KSP Residual norm 7.06321e-08 
1961 KSP Residual norm 7.0876e-08 
1962 KSP Residual norm 7.10274e-08 
1963 KSP Residual norm 7.1049e-08 
1964 KSP Residual norm 7.09366e-08 
1965 KSP Residual norm 7.0725e-08 
1966 KSP Residual norm 7.04746e-08 
1967 KSP Residual norm 7.02457e-08 
1968 KSP Residual norm 7.00732e-08 
1969 KSP Residual norm 6.99543e-08 
1970 KSP Residual norm 6.98555e-08 
1971 KSP Residual norm 6.97327e-08 
1972 KSP Residual norm 6.95532e-08 
1973 KSP Residual norm 6.93092e-08 
1974 KSP Residual norm 6.90165e-08 
1975 KSP Residual norm 6.87003e-08 
1976 KSP Residual norm 6.83758e-08 
1977 KSP Residual norm 6.80339e-08 
1978 KSP Residual norm 6.76408e-08 
1979 KSP Residual norm 6.71522e-08 
1980 KSP Residual norm 6.65338e-08 
1981 KSP Residual norm 6.5778e-08 
1982 KSP Residual norm 6.49065e-08 
1983 KSP Residual norm 6.39587e-08 
1984 KSP Residual norm 6.29728e-08 
1985 KSP Residual norm 6.19698e-08 
1986 KSP Residual norm 6.09496e-08 
1987 KSP Residual norm 5.98998e-08 
1988 KSP Residual norm 5.88122e-08 
1989 KSP Residual norm 5.76949e-08 
1990 KSP Residual norm 5.65765e-08 
1991 KSP Residual norm 5.54974e-08 
1992 KSP Residual norm 5.44953e-08 
1993 KSP Residual norm 5.35905e-08 
1994 KSP Residual norm 5.27806e-08 
1995 KSP Residual norm 5.20444e-08 
1996 KSP Residual norm 5.13546e-08 
1997 KSP Residual norm 5.06915e-08 
1998 KSP Residual norm 5.00512e-08 
1999 KSP Residual norm 4.94438e-08 
2000 KSP Residual norm 4.88841e-08 
2001 KSP Residual norm 4.83787e-08 
2002 KSP Residual norm 4.79181e-08 
2003 KSP Residual norm 4.74772e-08 
2004 KSP Residual norm 4.70255e-08 
2005 KSP Residual norm 4.65405e-08 
2006 KSP Residual norm 4.6019e-08 
2007 KSP Residual norm 4.54804e-08 
2008 KSP Residual norm 4.49595e-08 
2009 KSP Residual norm 4.44934e-08 
2010 KSP Residual norm 4.4107e-08 
2011 KSP Residual norm 4.3805e-08 
2012 KSP Residual norm 4.35734e-08 
2013 KSP Residual norm 4.33897e-08 
2014 KSP Residual norm 4.32357e-08 
2015 KSP Residual norm 4.31078e-08 
2016 KSP Residual norm 4.30191e-08 
2017 KSP Residual norm 4.29938e-08 
2018 KSP Residual norm 4.30549e-08 
2019 KSP Residual norm 4.32111e-08 
2020 KSP Residual norm 4.34493e-08 
2021 KSP Residual norm 4.37366e-08 
2022 KSP Residual norm 4.40306e-08 
2023 KSP Residual norm 4.42936e-08 
2024 KSP Residual norm 4.45046e-08 
2025 KSP Residual norm 4.46645e-08 
2026 KSP Residual norm 4.47924e-08 
2027 KSP Residual norm 4.49146e-08 
2028 KSP Residual norm 4.50516e-08 
2029 KSP Residual norm 4.52078e-08 
2030 KSP Residual norm 4.53694e-08 
2031 KSP Residual norm 4.55102e-08 
2032 KSP Residual norm 4.5604e-08 
2033 KSP Residual norm 4.56351e-08 
2034 KSP Residual norm 4.56049e-08 
2035 KSP Residual norm 4.553e-08 
2036 KSP Residual norm 4.54339e-08 
2037 KSP Residual norm 4.53355e-08 
2038 KSP Residual norm 4.52419e-08 
2039 KSP Residual norm 4.51464e-08 
2040 KSP Residual norm 4.50349e-08 
2041 KSP Residual norm 4.48948e-08 
2042 KSP Residual norm 4.47234e-08 
2043 KSP Residual norm 4.45307e-08 
2044 KSP Residual norm 4.43353e-08 
2045 KSP Residual norm 4.41557e-08 
2046 KSP Residual norm 4.40009e-08 
2047 KSP Residual norm 4.38666e-08 
2048 KSP Residual norm 4.37369e-08 
2049 KSP Residual norm 4.35924e-08 
2050 KSP Residual norm 4.34209e-08 
2051 KSP Residual norm 4.32238e-08 
2052 KSP Residual norm 4.30166e-08 
2053 KSP Residual norm 4.28229e-08 
2054 KSP Residual norm 4.26625e-08 
2055 KSP Residual norm 4.25422e-08 
2056 KSP Residual norm 4.24511e-08 
2057 KSP Residual norm 4.23649e-08 
2058 KSP Residual norm 4.22562e-08 
2059 KSP Residual norm 4.21064e-08 
2060 KSP Residual norm 4.19139e-08 
2061 KSP Residual norm 4.16938e-08 
2062 KSP Residual norm 4.14708e-08 
2063 KSP Residual norm 4.12661e-08 
2064 KSP Residual norm 4.10877e-08 
2065 KSP Residual norm 4.09263e-08 
2066 KSP Residual norm 4.0761e-08 
2067 KSP Residual norm 4.05706e-08 
2068 KSP Residual norm 4.03461e-08 
2069 KSP Residual norm 4.00969e-08 
2070 KSP Residual norm 3.98492e-08 
2071 KSP Residual norm 3.96357e-08 
2072 KSP Residual norm 3.94808e-08 
2073 KSP Residual norm 3.93896e-08 
2074 KSP Residual norm 3.9344e-08 
2075 KSP Residual norm 3.93095e-08 
2076 KSP Residual norm 3.92483e-08 
2077 KSP Residual norm 3.91341e-08 
2078 KSP Residual norm 3.89608e-08 
2079 KSP Residual norm 3.87431e-08 
2080 KSP Residual norm 3.85081e-08 
2081 KSP Residual norm 3.82811e-08 
2082 KSP Residual norm 3.80732e-08 
2083 KSP Residual norm 3.7875e-08 
2084 KSP Residual norm 3.76608e-08 
2085 KSP Residual norm 3.73998e-08 
2086 KSP Residual norm 3.70693e-08 
2087 KSP Residual norm 3.66634e-08 
2088 KSP Residual norm 3.61942e-08 
2089 KSP Residual norm 3.56852e-08 
2090 KSP Residual norm 3.51606e-08 
2091 KSP Residual norm 3.4636e-08 
2092 KSP Residual norm 3.41131e-08 
2093 KSP Residual norm 3.35834e-08 
2094 KSP Residual norm 3.30352e-08 
2095 KSP Residual norm 3.24628e-08 
2096 KSP Residual norm 3.18721e-08 
2097 KSP Residual norm 3.12799e-08 
2098 KSP Residual norm 3.07084e-08 
2099 KSP Residual norm 3.0176e-08 
2100 KSP Residual norm 2.96902e-08 
2101 KSP Residual norm 2.92445e-08 
2102 KSP Residual norm 2.88226e-08 
2103 KSP Residual norm 2.8405e-08 
2104 KSP Residual norm 2.79783e-08 
2105 KSP Residual norm 2.75405e-08 
2106 KSP Residual norm 2.71021e-08 
2107 KSP Residual norm 2.66818e-08 
2108 KSP Residual norm 2.62993e-08 
2109 KSP Residual norm 2.59676e-08 
2110 KSP Residual norm 2.56883e-08 
2111 KSP Residual norm 2.54511e-08 
2112 KSP Residual norm 2.52389e-08 
2113 KSP Residual norm 2.50342e-08 
2114 KSP Residual norm 2.48259e-08 
2115 KSP Residual norm 2.46121e-08 
2116 KSP Residual norm 2.44004e-08 
2117 KSP Residual norm 2.42033e-08 
2118 KSP Residual norm 2.40332e-08 
2119 KSP Residual norm 2.38976e-08 
2120 KSP Residual norm 2.37969e-08 
2121 KSP Residual norm 2.37257e-08 
2122 KSP Residual norm 2.3676e-08 
2123 KSP Residual norm 2.36412e-08 
2124 KSP Residual norm 2.36193e-08 
2125 KSP Residual norm 2.3613e-08 
2126 KSP Residual norm 2.36278e-08 
2127 KSP Residual norm 2.36687e-08 
2128 KSP Residual norm 2.37362e-08 
2129 KSP Residual norm 2.38252e-08 
2130 KSP Residual norm 2.3925e-08 
2131 KSP Residual norm 2.40232e-08 
2132 KSP Residual norm 2.41088e-08 
2133 KSP Residual norm 2.41763e-08 
2134 KSP Residual norm 2.42264e-08 
2135 KSP Residual norm 2.42651e-08 
2136 KSP Residual norm 2.43008e-08 
2137 KSP Residual norm 2.43399e-08 
2138 KSP Residual norm 2.43843e-08 
2139 KSP Residual norm 2.44313e-08 
2140 KSP Residual norm 2.44744e-08 
2141 KSP Residual norm 2.45076e-08 
2142 KSP Residual norm 2.45277e-08 
2143 KSP Residual norm 2.45368e-08 
2144 KSP Residual norm 2.45408e-08 
2145 KSP Residual norm 2.45481e-08 
2146 KSP Residual norm 2.45653e-08 
2147 KSP Residual norm 2.45953e-08 
2148 KSP Residual norm 2.46367e-08 
2149 KSP Residual norm 2.46851e-08 
2150 KSP Residual norm 2.47364e-08 
2151 KSP Residual norm 2.47898e-08 
2152 KSP Residual norm 2.48492e-08 
2153 KSP Residual norm 2.49231e-08 
2154 KSP Residual norm 2.50211e-08 
2155 KSP Residual norm 2.51497e-08 
2156 KSP Residual norm 2.53091e-08 
2157 KSP Residual norm 2.54911e-08 
2158 KSP Residual norm 2.56818e-08 
2159 KSP Residual norm 2.58653e-08 
2160 KSP Residual norm 2.60298e-08 
2161 KSP Residual norm 2.61713e-08 
2162 KSP Residual norm 2.62952e-08 
2163 KSP Residual norm 2.64143e-08 
2164 KSP Residual norm 2.65436e-08 
[...]
4469 KSP Residual norm 1.07677e-08 
4470 KSP Residual norm 1.07545e-08 
4471 KSP Residual norm 1.07395e-08 
4472 KSP Residual norm 1.07226e-08 
4473 KSP Residual norm 1.07039e-08 
4474 KSP Residual norm 1.06835e-08 
4475 KSP Residual norm 1.06617e-08 
4476 KSP Residual norm 1.06389e-08 
4477 KSP Residual norm 1.06154e-08 
4478 KSP Residual norm 1.05918e-08 
4479 KSP Residual norm 1.05683e-08 
4480 KSP Residual norm 1.05456e-08 
4481 KSP Residual norm 1.05239e-08 
4482 KSP Residual norm 1.05036e-08 
4483 KSP Residual norm 1.04849e-08 
4484 KSP Residual norm 1.04679e-08 
4485 KSP Residual norm 1.04527e-08 
4486 KSP Residual norm 1.04391e-08 
4487 KSP Residual norm 1.04271e-08 
4488 KSP Residual norm 1.04163e-08 
4489 KSP Residual norm 1.04064e-08 
4490 KSP Residual norm 1.03972e-08 
4491 KSP Residual norm 1.03883e-08 
4492 KSP Residual norm 1.03793e-08 
4493 KSP Residual norm 1.03699e-08 
4494 KSP Residual norm 1.03601e-08 
4495 KSP Residual norm 1.03496e-08 
4496 KSP Residual norm 1.03383e-08 
4497 KSP Residual norm 1.03265e-08 
4498 KSP Residual norm 1.0314e-08 
4499 KSP Residual norm 1.03013e-08 
4500 KSP Residual norm 1.02885e-08 
4501 KSP Residual norm 1.0276e-08 
4502 KSP Residual norm 1.0264e-08 
4503 KSP Residual norm 1.02529e-08 
4504 KSP Residual norm 1.02429e-08 
4505 KSP Residual norm 1.02342e-08 
4506 KSP Residual norm 1.0227e-08 
4507 KSP Residual norm 1.02213e-08 
4508 KSP Residual norm 1.02171e-08 
4509 KSP Residual norm 1.02142e-08 
4510 KSP Residual norm 1.02123e-08 
4511 KSP Residual norm 1.02112e-08 
4512 KSP Residual norm 1.02105e-08 
4513 KSP Residual norm 1.02099e-08 
4514 KSP Residual norm 1.02089e-08 
4515 KSP Residual norm 1.02072e-08 
4516 KSP Residual norm 1.02045e-08 
4517 KSP Residual norm 1.02005e-08 
4518 KSP Residual norm 1.01951e-08 
4519 KSP Residual norm 1.01882e-08 
4520 KSP Residual norm 1.018e-08 
4521 KSP Residual norm 1.01704e-08 
4522 KSP Residual norm 1.01599e-08 
4523 KSP Residual norm 1.01487e-08 
4524 KSP Residual norm 1.01372e-08 
4525 KSP Residual norm 1.01258e-08 
4526 KSP Residual norm 1.0115e-08 
4527 KSP Residual norm 1.01052e-08 
4528 KSP Residual norm 1.00966e-08 
4529 KSP Residual norm 1.00897e-08 
4530 KSP Residual norm 1.00844e-08 
4531 KSP Residual norm 1.0081e-08 
4532 KSP Residual norm 1.00793e-08 
4533 KSP Residual norm 1.00791e-08 
4534 KSP Residual norm 1.00802e-08 
4535 KSP Residual norm 1.00822e-08 
4536 KSP Residual norm 1.00848e-08 
4537 KSP Residual norm 1.00873e-08 
4538 KSP Residual norm 1.00895e-08 
4539 KSP Residual norm 1.00909e-08 
4540 KSP Residual norm 1.00911e-08 
4541 KSP Residual norm 1.00899e-08 
4542 KSP Residual norm 1.00871e-08 
4543 KSP Residual norm 1.00826e-08 
4544 KSP Residual norm 1.00766e-08 
4545 KSP Residual norm 1.00691e-08 
4546 KSP Residual norm 1.00605e-08 
4547 KSP Residual norm 1.00511e-08 
4548 KSP Residual norm 1.00413e-08 
4549 KSP Residual norm 1.00317e-08 
4550 KSP Residual norm 1.00226e-08 
4551 KSP Residual norm 1.00145e-08 
4552 KSP Residual norm 1.00078e-08 
4553 KSP Residual norm 1.00029e-08 
4554 KSP Residual norm 9.99978e-09 
4555 KSP Residual norm 9.99872e-09 
4556 KSP Residual norm 9.99964e-09 
4557 KSP Residual norm 1.00024e-08 
4558 KSP Residual norm 1.00068e-08 
4559 KSP Residual norm 1.00124e-08 
4560 KSP Residual norm 1.0019e-08 
4561 KSP Residual norm 1.00261e-08 
4562 KSP Residual norm 1.00332e-08 
4563 KSP Residual norm 1.004e-08 
4564 KSP Residual norm 1.00461e-08 
4565 KSP Residual norm 1.00513e-08 
4566 KSP Residual norm 1.00554e-08 
4567 KSP Residual norm 1.00583e-08 
4568 KSP Residual norm 1.00602e-08 
4569 KSP Residual norm 1.00611e-08 
4570 KSP Residual norm 1.00613e-08 
4571 KSP Residual norm 1.00612e-08 
4572 KSP Residual norm 1.00612e-08 
4573 KSP Residual norm 1.00618e-08 
4574 KSP Residual norm 1.00633e-08 
4575 KSP Residual norm 1.00662e-08 
4576 KSP Residual norm 1.00708e-08 
4577 KSP Residual norm 1.00775e-08 
4578 KSP Residual norm 1.00863e-08 
4579 KSP Residual norm 1.00974e-08 
4580 KSP Residual norm 1.01105e-08 
4581 KSP Residual norm 1.01256e-08 
4582 KSP Residual norm 1.01422e-08 
4583 KSP Residual norm 1.01599e-08 
4584 KSP Residual norm 1.01783e-08 
4585 KSP Residual norm 1.01968e-08 
4586 KSP Residual norm 1.02149e-08 
4587 KSP Residual norm 1.02322e-08 
4588 KSP Residual norm 1.02482e-08 
4589 KSP Residual norm 1.02625e-08 
4590 KSP Residual norm 1.02749e-08 
4591 KSP Residual norm 1.02854e-08 
4592 KSP Residual norm 1.02939e-08 
4593 KSP Residual norm 1.03006e-08 
4594 KSP Residual norm 1.03057e-08 
4595 KSP Residual norm 1.03096e-08 
4596 KSP Residual norm 1.03128e-08 
4597 KSP Residual norm 1.03156e-08 
4598 KSP Residual norm 1.03187e-08 
4599 KSP Residual norm 1.03224e-08 
4600 KSP Residual norm 1.03272e-08 
4601 KSP Residual norm 1.03333e-08 
4602 KSP Residual norm 1.03411e-08 
4603 KSP Residual norm 1.03505e-08 
4604 KSP Residual norm 1.03616e-08 
4605 KSP Residual norm 1.03743e-08 
4606 KSP Residual norm 1.03881e-08 
4607 KSP Residual norm 1.04028e-08 
4608 KSP Residual norm 1.0418e-08 
4609 KSP Residual norm 1.0433e-08 
4610 KSP Residual norm 1.04475e-08 
4611 KSP Residual norm 1.0461e-08 
4612 KSP Residual norm 1.04732e-08 
4613 KSP Residual norm 1.04836e-08 
4614 KSP Residual norm 1.04921e-08 
4615 KSP Residual norm 1.04987e-08 
4616 KSP Residual norm 1.05034e-08 
4617 KSP Residual norm 1.05064e-08 
4618 KSP Residual norm 1.0508e-08 
4619 KSP Residual norm 1.05086e-08 
4620 KSP Residual norm 1.05087e-08 
4621 KSP Residual norm 1.05088e-08 
4622 KSP Residual norm 1.05096e-08 
4623 KSP Residual norm 1.05114e-08 
4624 KSP Residual norm 1.05148e-08 
4625 KSP Residual norm 1.052e-08 
4626 KSP Residual norm 1.05275e-08 
4627 KSP Residual norm 1.05371e-08 
4628 KSP Residual norm 1.0549e-08 
4629 KSP Residual norm 1.0563e-08 
4630 KSP Residual norm 1.05786e-08 
4631 KSP Residual norm 1.05956e-08 
4632 KSP Residual norm 1.06134e-08 
4633 KSP Residual norm 1.06314e-08 
4634 KSP Residual norm 1.06491e-08 
4635 KSP Residual norm 1.0666e-08 
4636 KSP Residual norm 1.06815e-08 
4637 KSP Residual norm 1.06953e-08 
4638 KSP Residual norm 1.07071e-08 
4639 KSP Residual norm 1.07168e-08 
4640 KSP Residual norm 1.07243e-08 
4641 KSP Residual norm 1.07299e-08 
4642 KSP Residual norm 1.07337e-08 
4643 KSP Residual norm 1.07362e-08 
4644 KSP Residual norm 1.07379e-08 
4645 KSP Residual norm 1.07392e-08 
4646 KSP Residual norm 1.07409e-08 
4647 KSP Residual norm 1.07434e-08 
4648 KSP Residual norm 1.07472e-08 
4649 KSP Residual norm 1.07527e-08 
4650 KSP Residual norm 1.07602e-08 
4651 KSP Residual norm 1.07698e-08 
4652 KSP Residual norm 1.07815e-08 
4653 KSP Residual norm 1.07951e-08 
4654 KSP Residual norm 1.08102e-08 
4655 KSP Residual norm 1.08265e-08 
4656 KSP Residual norm 1.08432e-08 
4657 KSP Residual norm 1.08599e-08 
4658 KSP Residual norm 1.08757e-08 
4659 KSP Residual norm 1.08902e-08 
4660 KSP Residual norm 1.09027e-08 
4661 KSP Residual norm 1.09127e-08 
4662 KSP Residual norm 1.09199e-08 
4663 KSP Residual norm 1.0924e-08 
4664 KSP Residual norm 1.0925e-08 
4665 KSP Residual norm 1.0923e-08 
4666 KSP Residual norm 1.09183e-08 
4667 KSP Residual norm 1.09112e-08 
4668 KSP Residual norm 1.09025e-08 
4669 KSP Residual norm 1.08926e-08 
4670 KSP Residual norm 1.08822e-08 
4671 KSP Residual norm 1.08722e-08 
4672 KSP Residual norm 1.08631e-08 
4673 KSP Residual norm 1.08556e-08 
4674 KSP Residual norm 1.085e-08 
4675 KSP Residual norm 1.08469e-08 
4676 KSP Residual norm 1.08463e-08 
4677 KSP Residual norm 1.08482e-08 
4678 KSP Residual norm 1.08524e-08 
4679 KSP Residual norm 1.08586e-08 
4680 KSP Residual norm 1.08663e-08 
4681 KSP Residual norm 1.08749e-08 
4682 KSP Residual norm 1.08836e-08 
4683 KSP Residual norm 1.08919e-08 
4684 KSP Residual norm 1.0899e-08 
4685 KSP Residual norm 1.09043e-08 
4686 KSP Residual norm 1.09072e-08 
4687 KSP Residual norm 1.09073e-08 
4688 KSP Residual norm 1.09045e-08 
4689 KSP Residual norm 1.08985e-08 
4690 KSP Residual norm 1.08896e-08 
4691 KSP Residual norm 1.08778e-08 
4692 KSP Residual norm 1.08637e-08 
4693 KSP Residual norm 1.08478e-08 
4694 KSP Residual norm 1.08307e-08 
4695 KSP Residual norm 1.08129e-08 
4696 KSP Residual norm 1.07954e-08 
4697 KSP Residual norm 1.07786e-08 
4698 KSP Residual norm 1.07632e-08 
4699 KSP Residual norm 1.07497e-08 
4700 KSP Residual norm 1.07385e-08 
4701 KSP Residual norm 1.07296e-08 
4702 KSP Residual norm 1.07231e-08 
4703 KSP Residual norm 1.07189e-08 
4704 KSP Residual norm 1.07166e-08 
4705 KSP Residual norm 1.07158e-08 
4706 KSP Residual norm 1.07159e-08 
4707 KSP Residual norm 1.07164e-08 
4708 KSP Residual norm 1.07166e-08 
4709 KSP Residual norm 1.07158e-08 
4710 KSP Residual norm 1.07136e-08 
4711 KSP Residual norm 1.07093e-08 
4712 KSP Residual norm 1.07027e-08 
4713 KSP Residual norm 1.06935e-08 
4714 KSP Residual norm 1.06817e-08 
4715 KSP Residual norm 1.06673e-08 
4716 KSP Residual norm 1.06507e-08 
4717 KSP Residual norm 1.0632e-08 
4718 KSP Residual norm 1.06119e-08 
4719 KSP Residual norm 1.05909e-08 
4720 KSP Residual norm 1.05696e-08 
4721 KSP Residual norm 1.05485e-08 
4722 KSP Residual norm 1.05283e-08 
4723 KSP Residual norm 1.05095e-08 
4724 KSP Residual norm 1.04923e-08 
4725 KSP Residual norm 1.04771e-08 
4726 KSP Residual norm 1.0464e-08 
4727 KSP Residual norm 1.04529e-08 
4728 KSP Residual norm 1.04435e-08 
4729 KSP Residual norm 1.04355e-08 
4730 KSP Residual norm 1.04285e-08 
4731 KSP Residual norm 1.04219e-08 
4732 KSP Residual norm 1.04151e-08 
4733 KSP Residual norm 1.04075e-08 
4734 KSP Residual norm 1.03985e-08 
4735 KSP Residual norm 1.03876e-08 
4736 KSP Residual norm 1.03744e-08 
4737 KSP Residual norm 1.03587e-08 
4738 KSP Residual norm 1.03402e-08 
4739 KSP Residual norm 1.03191e-08 
4740 KSP Residual norm 1.02954e-08 
4741 KSP Residual norm 1.02696e-08 
4742 KSP Residual norm 1.0242e-08 
4743 KSP Residual norm 1.02132e-08 
4744 KSP Residual norm 1.01839e-08 
4745 KSP Residual norm 1.01546e-08 
4746 KSP Residual norm 1.01261e-08 
4747 KSP Residual norm 1.00989e-08 
4748 KSP Residual norm 1.00736e-08 
4749 KSP Residual norm 1.00505e-08 
4750 KSP Residual norm 1.003e-08 
4751 KSP Residual norm 1.0012e-08 
4752 KSP Residual norm 9.99657e-09 
4753 KSP Residual norm 9.98343e-09 
4754 KSP Residual norm 9.97222e-09 
4755 KSP Residual norm 9.96243e-09 
4756 KSP Residual norm 9.95349e-09 
4757 KSP Residual norm 9.94476e-09 
4758 KSP Residual norm 9.93562e-09 
4759 KSP Residual norm 9.92546e-09 
4760 KSP Residual norm 9.91373e-09 
4761 KSP Residual norm 9.9e-09 
4762 KSP Residual norm 9.88396e-09 
4763 KSP Residual norm 9.86545e-09 
4764 KSP Residual norm 9.84447e-09 
4765 KSP Residual norm 9.82118e-09 
4766 KSP Residual norm 9.7959e-09 
4767 KSP Residual norm 9.76909e-09 
4768 KSP Residual norm 9.74133e-09 
4769 KSP Residual norm 9.71329e-09 
4770 KSP Residual norm 9.68566e-09 
4771 KSP Residual norm 9.65918e-09 
4772 KSP Residual norm 9.63453e-09 
4773 KSP Residual norm 9.61235e-09 
4774 KSP Residual norm 9.59313e-09 
4775 KSP Residual norm 9.57725e-09 
4776 KSP Residual norm 9.56491e-09 
4777 KSP Residual norm 9.55617e-09 
4778 KSP Residual norm 9.55088e-09 
4779 KSP Residual norm 9.54874e-09 
4780 KSP Residual norm 9.5493e-09 
4781 KSP Residual norm 9.55201e-09 
4782 KSP Residual norm 9.55621e-09 
4783 KSP Residual norm 9.56123e-09 
4784 KSP Residual norm 9.56636e-09 
4785 KSP Residual norm 9.57095e-09 
4786 KSP Residual norm 9.57441e-09 
4787 KSP Residual norm 9.57627e-09 
4788 KSP Residual norm 9.57618e-09 
4789 KSP Residual norm 9.57393e-09 
4790 KSP Residual norm 9.56947e-09 
4791 KSP Residual norm 9.56292e-09 
4792 KSP Residual norm 9.55455e-09 
4793 KSP Residual norm 9.54474e-09 
4794 KSP Residual norm 9.53401e-09 
4795 KSP Residual norm 9.52295e-09 
4796 KSP Residual norm 9.51219e-09 
4797 KSP Residual norm 9.50239e-09 
4798 KSP Residual norm 9.49413e-09 
4799 KSP Residual norm 9.48798e-09 
4800 KSP Residual norm 9.48435e-09 
4801 KSP Residual norm 9.48355e-09 
4802 KSP Residual norm 9.48571e-09 
4803 KSP Residual norm 9.49082e-09 
4804 KSP Residual norm 9.49869e-09 
4805 KSP Residual norm 9.50897e-09 
4806 KSP Residual norm 9.52119e-09 
4807 KSP Residual norm 9.53475e-09 
4808 KSP Residual norm 9.549e-09 
4809 KSP Residual norm 9.56325e-09 
4810 KSP Residual norm 9.5768e-09 
4811 KSP Residual norm 9.58902e-09 
4812 KSP Residual norm 9.59933e-09 
4813 KSP Residual norm 9.60728e-09 
4814 KSP Residual norm 9.61255e-09 
4815 KSP Residual norm 9.61499e-09 
4816 KSP Residual norm 9.61459e-09 
4817 KSP Residual norm 9.61151e-09 
4818 KSP Residual norm 9.60609e-09 
4819 KSP Residual norm 9.59878e-09 
4820 KSP Residual norm 9.59014e-09 
4821 KSP Residual norm 9.58085e-09 
4822 KSP Residual norm 9.5716e-09 
4823 KSP Residual norm 9.56309e-09 
4824 KSP Residual norm 9.556e-09 
4825 KSP Residual norm 9.55091e-09 
4826 KSP Residual norm 9.54833e-09 
4827 KSP Residual norm 9.54859e-09 
4828 KSP Residual norm 9.55189e-09 
4829 KSP Residual norm 9.55824e-09 
4830 KSP Residual norm 9.56751e-09 
4831 KSP Residual norm 9.5794e-09 
4832 KSP Residual norm 9.59347e-09 
4833 KSP Residual norm 9.60917e-09 
4834 KSP Residual norm 9.6259e-09 
4835 KSP Residual norm 9.64298e-09 
4836 KSP Residual norm 9.65976e-09 
4837 KSP Residual norm 9.67564e-09 
4838 KSP Residual norm 9.69007e-09 
4839 KSP Residual norm 9.70261e-09 
4840 KSP Residual norm 9.71296e-09 
4841 KSP Residual norm 9.72093e-09 
4842 KSP Residual norm 9.72654e-09 
4843 KSP Residual norm 9.72991e-09 
4844 KSP Residual norm 9.73133e-09 
4845 KSP Residual norm 9.73123e-09 
4846 KSP Residual norm 9.73013e-09 
4847 KSP Residual norm 9.72864e-09 
4848 KSP Residual norm 9.72739e-09 
4849 KSP Residual norm 9.72706e-09 
4850 KSP Residual norm 9.72826e-09 
4851 KSP Residual norm 9.73155e-09 
4852 KSP Residual norm 9.73738e-09 
4853 KSP Residual norm 9.74608e-09 
4854 KSP Residual norm 9.75781e-09 
4855 KSP Residual norm 9.7726e-09 
4856 KSP Residual norm 9.79031e-09 
4857 KSP Residual norm 9.81063e-09 
4858 KSP Residual norm 9.83314e-09 
4859 KSP Residual norm 9.85731e-09 
4860 KSP Residual norm 9.88253e-09 
4861 KSP Residual norm 9.90815e-09 
4862 KSP Residual norm 9.93351e-09 
4863 KSP Residual norm 9.95802e-09 
4864 KSP Residual norm 9.98111e-09 
4865 KSP Residual norm 1.00023e-08 
4866 KSP Residual norm 1.00214e-08 
4867 KSP Residual norm 1.00381e-08 
4868 KSP Residual norm 1.00523e-08 
4869 KSP Residual norm 1.00643e-08 
4870 KSP Residual norm 1.00742e-08 
4871 KSP Residual norm 1.00825e-08 
4872 KSP Residual norm 1.00896e-08 
4873 KSP Residual norm 1.00962e-08 
4874 KSP Residual norm 1.01027e-08 
4875 KSP Residual norm 1.01099e-08 
4876 KSP Residual norm 1.01183e-08 
4877 KSP Residual norm 1.01284e-08 
4878 KSP Residual norm 1.01407e-08 
4879 KSP Residual norm 1.01555e-08 
4880 KSP Residual norm 1.01729e-08 
4881 KSP Residual norm 1.01929e-08 
4882 KSP Residual norm 1.02154e-08 
4883 KSP Residual norm 1.02401e-08 
4884 KSP Residual norm 1.02665e-08 
4885 KSP Residual norm 1.02942e-08 
4886 KSP Residual norm 1.03225e-08 
4887 KSP Residual norm 1.03508e-08 
4888 KSP Residual norm 1.03784e-08 
4889 KSP Residual norm 1.04049e-08 
4890 KSP Residual norm 1.04296e-08 
4891 KSP Residual norm 1.04521e-08 
4892 KSP Residual norm 1.04722e-08 
4893 KSP Residual norm 1.04897e-08 
4894 KSP Residual norm 1.05046e-08 
4895 KSP Residual norm 1.05171e-08 
4896 KSP Residual norm 1.05274e-08 
4897 KSP Residual norm 1.05359e-08 
4898 KSP Residual norm 1.05433e-08 
4899 KSP Residual norm 1.05501e-08 
4900 KSP Residual norm 1.0557e-08 
4901 KSP Residual norm 1.05646e-08 
4902 KSP Residual norm 1.05736e-08 
4903 KSP Residual norm 1.05845e-08 
4904 KSP Residual norm 1.05978e-08 
4905 KSP Residual norm 1.06137e-08 
4906 KSP Residual norm 1.06325e-08 
4907 KSP Residual norm 1.0654e-08 
4908 KSP Residual norm 1.06781e-08 
4909 KSP Residual norm 1.07044e-08 
4910 KSP Residual norm 1.07325e-08 
4911 KSP Residual norm 1.07618e-08 
4912 KSP Residual norm 1.07915e-08 
4913 KSP Residual norm 1.0821e-08 
4914 KSP Residual norm 1.08496e-08 
4915 KSP Residual norm 1.08766e-08 
4916 KSP Residual norm 1.09014e-08 
4917 KSP Residual norm 1.09235e-08 
4918 KSP Residual norm 1.09425e-08 
4919 KSP Residual norm 1.09584e-08 
4920 KSP Residual norm 1.0971e-08 
4921 KSP Residual norm 1.09806e-08 
4922 KSP Residual norm 1.09874e-08 
4923 KSP Residual norm 1.09919e-08 
4924 KSP Residual norm 1.09947e-08 
4925 KSP Residual norm 1.09966e-08 
4926 KSP Residual norm 1.09983e-08 
4927 KSP Residual norm 1.10005e-08 
4928 KSP Residual norm 1.10041e-08 
4929 KSP Residual norm 1.10097e-08 
4930 KSP Residual norm 1.10179e-08 
4931 KSP Residual norm 1.10292e-08 
4932 KSP Residual norm 1.10438e-08 
4933 KSP Residual norm 1.10619e-08 
4934 KSP Residual norm 1.10834e-08 
4935 KSP Residual norm 1.11079e-08 
4936 KSP Residual norm 1.11351e-08 
4937 KSP Residual norm 1.11644e-08 
4938 KSP Residual norm 1.11951e-08 
4939 KSP Residual norm 1.12264e-08 
4940 KSP Residual norm 1.12575e-08 
4941 KSP Residual norm 1.12877e-08 
4942 KSP Residual norm 1.13163e-08 
4943 KSP Residual norm 1.13426e-08 
4944 KSP Residual norm 1.1366e-08 
4945 KSP Residual norm 1.13863e-08 
4946 KSP Residual norm 1.14033e-08 
4947 KSP Residual norm 1.14168e-08 
4948 KSP Residual norm 1.14271e-08 
4949 KSP Residual norm 1.14345e-08 
4950 KSP Residual norm 1.14394e-08 
4951 KSP Residual norm 1.14425e-08 
4952 KSP Residual norm 1.14443e-08 
4953 KSP Residual norm 1.14456e-08 
4954 KSP Residual norm 1.14471e-08 
4955 KSP Residual norm 1.14495e-08 
4956 KSP Residual norm 1.14533e-08 
4957 KSP Residual norm 1.14592e-08 
4958 KSP Residual norm 1.14673e-08 
4959 KSP Residual norm 1.14779e-08 
4960 KSP Residual norm 1.1491e-08 
4961 KSP Residual norm 1.15064e-08 
4962 KSP Residual norm 1.15237e-08 
4963 KSP Residual norm 1.15425e-08 
4964 KSP Residual norm 1.1562e-08 
4965 KSP Residual norm 1.15815e-08 
4966 KSP Residual norm 1.16004e-08 
4967 KSP Residual norm 1.16178e-08 
4968 KSP Residual norm 1.1633e-08 
4969 KSP Residual norm 1.16454e-08 
4970 KSP Residual norm 1.16545e-08 
4971 KSP Residual norm 1.16598e-08 
4972 KSP Residual norm 1.16613e-08 
4973 KSP Residual norm 1.16587e-08 
4974 KSP Residual norm 1.16523e-08 
4975 KSP Residual norm 1.16425e-08 
4976 KSP Residual norm 1.16296e-08 
4977 KSP Residual norm 1.16143e-08 
4978 KSP Residual norm 1.15974e-08 
4979 KSP Residual norm 1.15796e-08 
4980 KSP Residual norm 1.15618e-08 
4981 KSP Residual norm 1.15447e-08 
4982 KSP Residual norm 1.1529e-08 
4983 KSP Residual norm 1.15154e-08 
4984 KSP Residual norm 1.15043e-08 
4985 KSP Residual norm 1.1496e-08 
4986 KSP Residual norm 1.14907e-08 
4987 KSP Residual norm 1.14881e-08 
4988 KSP Residual norm 1.14881e-08 
4989 KSP Residual norm 1.14902e-08 
4990 KSP Residual norm 1.14939e-08 
4991 KSP Residual norm 1.14984e-08 
4992 KSP Residual norm 1.1503e-08 
4993 KSP Residual norm 1.1507e-08 
4994 KSP Residual norm 1.15095e-08 
4995 KSP Residual norm 1.15099e-08 
4996 KSP Residual norm 1.15075e-08 
4997 KSP Residual norm 1.15019e-08 
4998 KSP Residual norm 1.14929e-08 
4999 KSP Residual norm 1.14802e-08 
5000 KSP Residual norm 1.14639e-08 
    Initial residual = 2.11855813053
    Iter = 0, relRef = 1, res = 1.45552675363, resAbs = 2.11855813053, nIters = 5000, maxD = 0.014559766897
Max pEpsilonEq = 0.000464362792937
Max epsilonEq = 0.000477436731886
Max sigmaEq (von Mises stress) = 110177707.358
ExecutionTime = 25.08 s  ClockTime = 28 s

Writing analyticalCellStress field

Writing cellStressDifference field
    Component: 0
    Norms: mean L1, mean L2, LInf: 
    1665948.93241 1928288.3766 12467495.4345

    Component: 1
    Norms: mean L1, mean L2, LInf: 
    656604.312897 767609.736631 10129793.8328

    Component: 3
    Norms: mean L1, mean L2, LInf: 
    990093.50517 1173398.26453 17349951.6835

Writing analyticalPointDisplacement field

Writing pointDDifference field
    Norms: mean L1, mean L2, LInf: 
    0.000555359422124 0.000718627960264 0.00147896118482

The momentum equation converged in all time-steps


End

