/*---------------------------------------------------------------------------*\
| =========                 |                                                 |
| \\      /  F ield         | OpenFOAM: The Open Source CFD Toolbox           |
|  \\    /   O peration     | Version:  v2012                                 |
|   \\  /    A nd           | Website:  www.openfoam.com                      |
|    \\/     M anipulation  |                                                 |
\*---------------------------------------------------------------------------*/
Build  : _7bdb509494-20201222 OPENFOAM=2012
Arch   : "LSB;label=32;scalar=64"
Exec   : solids4Foam
Date   : Jul 31 2023
Time   : 18:12:50
Host   : DESKTOP-19FOE2K
PID    : 26314
I/O    : uncollated
Case   : /home/federico/OpenFOAM/federico-v2012/run/solid-benchmarks-main/Small-strain/elastoplasticity/plateHole_Ver1/vertexCentredLinearGeometry/unstructuredTriangles/vertex.2
nProcs : 1
trapFpe: Floating point exception trapping enabled (FOAM_SIGFPE).
fileModificationChecking : Monitoring run-time modified files using timeStampMaster (fileModificationSkew 5, maxFileModificationPolls 20)
allowSystemOperations : Allowing user-supplied system call operations

// * * * * * * * * * * * * * * * * * * * * * * * * * * * * * * * * * * * * * //
Create time

--> FOAM Warning : 
    From static Foam::IOstreamOption::compressionType Foam::IOstreamOption::compressionEnum(const Foam::word&, Foam::IOstreamOption::compressionType)
    in file db/IOstreams/IOstreams/IOstreamOption.C at line 115
    Unknown compression specifier 'uncompressed', using compression off
/*---------------------------------------------------------------------------*\
|    For further information on the solids4Foam toolbox implementations,      |
|    please see the following publications:                                   |
|                                                                             |
|    P. Cardiff, A Karac, P. De Jaeger, H. Jasak, J. Nagy, A. Ivankovic,      |
|    Z. Tukovic: An open-source finite volume toolbox for solid mechanics and |
|    fluid-solid interaction simulations. arXiv:1808.10736v2, 2018, available |
|    at https://arxiv.org/abs/1808.10736.                                     |
|                                                                             |
|    Z. Tukovic, A. Karac, P. Cardiff, H. Jasak, A. Ivankovic: OpenFOAM       |
|    finite volume solver for fluid-solid interaction.  Transactions of       |
|    Famena, 42 (3), pp. 1-31, 2018, 10.21278/TOF.42301.                      |
\*---------------------------------------------------------------------------*/

Selecting physicsModel solidModel
Selecting solidModel vertexCentredLinearGeometry
Selecting dynamicFvMesh staticFvMesh
    traction is time-varying
    under-relaxation method: fixed
Creating dualMesh
    featureAngle: 30
    doNotPreserveFaceZones: 0
    concaveMultiCells: 0
Creating the mechanicalModel
Selecting mechanical law linearElasticMisesPlastic
    Plasticity is linear
Creating the dualMechanicalModel
Selecting mechanical law linearElasticMisesPlastic
    Plasticity is linear
fixedDofScale: 6.49163e+09
Creating disp function object
    region = region0
    minDist: 1e-06
SortByCompY called1111
Time = 0.2

Evolving solid solver
    Assembling the matrix
    Solving
  0 KSP Residual norm 0.00316834 
  1 KSP Residual norm < 1.e-11
    Initial residual = 1.00384e-05
    Iter = 0, relRef = 1, res = 0.00316834, resAbs = 1.00384e-05, nIters = 1, maxD = 0.000100845
    Solving
  0 KSP Residual norm < 1.e-11
    Iter = 1, relRef = 0, res = 0, resAbs = 0, nIters = 0, maxD = 0.000100845
    Converged
    Max DEpsilonPEq is 0
    0 cells (0% of the cells in this material) are actively yielding

ExecutionTime = 0.39 s  ClockTime = 2 s

Time = 0.4

Evolving solid solver
    Assembling the matrix
    Solving
  0 KSP Residual norm 0.00316834 
  1 KSP Residual norm < 1.e-11
    Initial residual = 1.00384e-05
    Iter = 0, relRef = 1, res = 0.00316834, resAbs = 1.00384e-05, nIters = 1, maxD = 0.000201689
    Solving
  0 KSP Residual norm < 1.e-11
    Iter = 1, relRef = 0, res = 0, resAbs = 0, nIters = 0, maxD = 0.000201689
    Converged
    Max DEpsilonPEq is 0
    0 cells (0% of the cells in this material) are actively yielding

ExecutionTime = 0.49 s  ClockTime = 2 s

Time = 0.6

Evolving solid solver
    Assembling the matrix
    Solving
  0 KSP Residual norm 0.00316834 
  1 KSP Residual norm < 1.e-11
    Initial residual = 1.00384e-05
    Iter = 0, relRef = 1, res = 0.00316834, resAbs = 1.00384e-05, nIters = 1, maxD = 0.000302534
    Solving
  0 KSP Residual norm < 1.e-11
    Iter = 1, relRef = 0, res = 0, resAbs = 0, nIters = 0, maxD = 0.000302534
    Converged
    Max DEpsilonPEq is 0
    0 cells (0% of the cells in this material) are actively yielding

ExecutionTime = 0.61 s  ClockTime = 2 s

Time = 0.8

Evolving solid solver
    Assembling the matrix
    Solving
  0 KSP Residual norm 0.00316834 
  1 KSP Residual norm < 1.e-11
    Initial residual = 1.00384e-05
    Iter = 0, relRef = 1, res = 0.00316834, resAbs = 1.00384e-05, nIters = 1, maxD = 0.000403378
    Solving
  0 KSP Residual norm < 1.e-11
    Iter = 1, relRef = 0, res = 0, resAbs = 0, nIters = 0, maxD = 0.000403378
    Converged
    Max DEpsilonPEq is 0
    0 cells (0% of the cells in this material) are actively yielding

ExecutionTime = 0.71 s  ClockTime = 2 s

Time = 1

Evolving solid solver
    Assembling the matrix
    Solving
  0 KSP Residual norm 0.00316834 
  1 KSP Residual norm < 1.e-11
    Initial residual = 1.00384e-05
    Iter = 0, relRef = 1, res = 0.00316834, resAbs = 1.00384e-05, nIters = 1, maxD = 0.000504223
    Solving
  0 KSP Residual norm < 1.e-11
    Iter = 1, relRef = 0, res = 0, resAbs = 0, nIters = 0, maxD = 0.000504223
    Converged
    Max DEpsilonPEq is 0
    0 cells (0% of the cells in this material) are actively yielding

Max pEpsilonEq = 0.000587441
Max epsilonEq = 0.000611598
Max sigmaEq (von Mises stress) = 4.93983e+07
ExecutionTime = 0.88 s  ClockTime = 2 s

Time = 1.2

Evolving solid solver
    Assembling the matrix
    Solving
  0 KSP Residual norm 0.00316834 
  1 KSP Residual norm < 1.e-11
    Initial residual = 1.00384e-05
    Iter = 0, relRef = 1, res = 0.00316834, resAbs = 1.00384e-05, nIters = 1, maxD = 0.000605068
    Solving
  0 KSP Residual norm < 1.e-11
    Iter = 1, relRef = 0, res = 0, resAbs = 0, nIters = 0, maxD = 0.000605068
    Converged
    Max DEpsilonPEq is 0
    0 cells (0% of the cells in this material) are actively yielding

ExecutionTime = 0.99 s  ClockTime = 2 s

Time = 1.4

Evolving solid solver
    Assembling the matrix
    Solving
  0 KSP Residual norm 0.00316834 
  1 KSP Residual norm < 1.e-11
    Initial residual = 1.00384e-05
    Iter = 0, relRef = 1, res = 0.00316834, resAbs = 1.00384e-05, nIters = 1, maxD = 0.000705912
    Solving
  0 KSP Residual norm < 1.e-11
    Iter = 1, relRef = 0, res = 0, resAbs = 0, nIters = 0, maxD = 0.000705912
    Converged
    Max DEpsilonPEq is 0
    0 cells (0% of the cells in this material) are actively yielding

ExecutionTime = 1.09 s  ClockTime = 2 s

Time = 1.6

Evolving solid solver
    Assembling the matrix
    Solving
  0 KSP Residual norm 0.00316834 
  1 KSP Residual norm < 1.e-11
    Initial residual = 1.00384e-05
    Iter = 0, relRef = 1, res = 0.00316834, resAbs = 1.00384e-05, nIters = 1, maxD = 0.000806757
    Solving
  0 KSP Residual norm < 1.e-11
    Iter = 1, relRef = 0, res = 0, resAbs = 0, nIters = 0, maxD = 0.000806757
    Converged
    Max DEpsilonPEq is 0
    0 cells (0% of the cells in this material) are actively yielding

ExecutionTime = 1.2 s  ClockTime = 3 s

Time = 1.8

Evolving solid solver
    Assembling the matrix
    Solving
  0 KSP Residual norm 0.00316834 
  1 KSP Residual norm < 1.e-11
    Initial residual = 1.00384e-05
    Iter = 0, relRef = 1, res = 0.00316834, resAbs = 1.00384e-05, nIters = 1, maxD = 0.000907602
    Solving
  0 KSP Residual norm < 1.e-11
    Iter = 1, relRef = 0, res = 0, resAbs = 0, nIters = 0, maxD = 0.000907602
    Converged
    Max DEpsilonPEq is 0
    0 cells (0% of the cells in this material) are actively yielding

ExecutionTime = 1.32 s  ClockTime = 3 s

Time = 2

Evolving solid solver
    Assembling the matrix
    Solving
  0 KSP Residual norm 0.00316834 
  1 KSP Residual norm < 1.e-11
    Initial residual = 1.00384e-05
    Iter = 0, relRef = 1, res = 0.00316834, resAbs = 1.00384e-05, nIters = 1, maxD = 0.00100845
    Solving
  0 KSP Residual norm < 1.e-11
    Iter = 1, relRef = 0, res = 0, resAbs = 0, nIters = 0, maxD = 0.00100845
    Converged
    Max DEpsilonPEq is 0
    0 cells (0% of the cells in this material) are actively yielding

Max pEpsilonEq = 0.00117488
Max epsilonEq = 0.0012232
Max sigmaEq (von Mises stress) = 9.87965e+07
ExecutionTime = 1.51 s  ClockTime = 3 s

Time = 2.2

Evolving solid solver
    Assembling the matrix
    Solving
  0 KSP Residual norm 0.00316834 
  1 KSP Residual norm < 1.e-11
    Initial residual = 1.00384e-05
    Iter = 0, relRef = 1, res = 0.00316834, resAbs = 1.00384e-05, nIters = 1, maxD = 0.00110929
    Solving
  0 KSP Residual norm < 1.e-11
    Iter = 1, relRef = 0, res = 0, resAbs = 0, nIters = 0, maxD = 0.00110929
    Converged
    Max DEpsilonPEq is 0
    0 cells (0% of the cells in this material) are actively yielding

ExecutionTime = 1.64 s  ClockTime = 3 s

Time = 2.4

Evolving solid solver
    Assembling the matrix
    Solving
  0 KSP Residual norm 0.00316834 
  1 KSP Residual norm < 1.e-11
    Initial residual = 1.00384e-05
    Iter = 0, relRef = 1, res = 0.00316834, resAbs = 1.00384e-05, nIters = 1, maxD = 0.00121014
    Solving
  0 KSP Residual norm < 1.e-11
    Iter = 1, relRef = 0, res = 0, resAbs = 0, nIters = 0, maxD = 0.00121014
    Converged
    Max DEpsilonPEq is 0
    0 cells (0% of the cells in this material) are actively yielding

ExecutionTime = 1.75 s  ClockTime = 3 s

Time = 2.6

Evolving solid solver
    Assembling the matrix
    Solving
  0 KSP Residual norm 0.00316834 
  1 KSP Residual norm < 1.e-11
    Initial residual = 1.00384e-05
    Iter = 0, relRef = 1, res = 0.00316834, resAbs = 1.00384e-05, nIters = 1, maxD = 0.00131098
    Solving
  0 KSP Residual norm < 1.e-11
    Iter = 1, relRef = 0, res = 0, resAbs = 0, nIters = 0, maxD = 0.00131098
    Converged
    Max DEpsilonPEq is 0
    0 cells (0% of the cells in this material) are actively yielding

ExecutionTime = 1.89 s  ClockTime = 3 s

Time = 2.8

Evolving solid solver
    Assembling the matrix
    Solving
  0 KSP Residual norm 0.00316834 
  1 KSP Residual norm < 1.e-11
    Initial residual = 1.00384e-05
    Iter = 0, relRef = 1, res = 0.00316834, resAbs = 1.00384e-05, nIters = 1, maxD = 0.00141182
    Solving
  0 KSP Residual norm < 1.e-11
    Iter = 1, relRef = 0, res = 0, resAbs = 0, nIters = 0, maxD = 0.00141182
    Converged
    Max DEpsilonPEq is 0
    0 cells (0% of the cells in this material) are actively yielding

ExecutionTime = 2.03 s  ClockTime = 3 s

Time = 3

Evolving solid solver
    Assembling the matrix
    Solving
  0 KSP Residual norm 0.00316834 
  1 KSP Residual norm < 1.e-11
    Initial residual = 1.00384e-05
    Iter = 0, relRef = 1, res = 0.00316834, resAbs = 1.00384e-05, nIters = 1, maxD = 0.00151267
    Solving
  0 KSP Residual norm < 1.e-11
    Iter = 1, relRef = 0, res = 0, resAbs = 0, nIters = 0, maxD = 0.00151267
    Converged
    Max DEpsilonPEq is 0
    0 cells (0% of the cells in this material) are actively yielding

Max pEpsilonEq = 0.00176232
Max epsilonEq = 0.00183479
Max sigmaEq (von Mises stress) = 1.48195e+08
ExecutionTime = 2.19 s  ClockTime = 4 s

Time = 3.2

Evolving solid solver
    Assembling the matrix
    Solving
  0 KSP Residual norm 0.00316834 
  1 KSP Residual norm < 1.e-11
    Initial residual = 1.00384e-05
    Iter = 0, relRef = 1, res = 0.00316834, resAbs = 1.00384e-05, nIters = 1, maxD = 0.00161351
    Solving
  0 KSP Residual norm < 1.e-11
    Iter = 1, relRef = 0, res = 0, resAbs = 0, nIters = 0, maxD = 0.00161351
    Converged
    Max DEpsilonPEq is 0
    0 cells (0% of the cells in this material) are actively yielding

ExecutionTime = 2.3 s  ClockTime = 4 s

Time = 3.4

Evolving solid solver
    Assembling the matrix
    Solving
  0 KSP Residual norm 0.00316834 
  1 KSP Residual norm < 1.e-11
    Initial residual = 1.00384e-05
    Iter = 0, relRef = 1, res = 0.00316834, resAbs = 1.00384e-05, nIters = 1, maxD = 0.00171436
    Solving
  0 KSP Residual norm < 1.e-11
    Iter = 1, relRef = 0, res = 0, resAbs = 0, nIters = 0, maxD = 0.00171436
    Converged
    Max DEpsilonPEq is 0
    0 cells (0% of the cells in this material) are actively yielding

ExecutionTime = 2.43 s  ClockTime = 4 s

Time = 3.6

Evolving solid solver
    Assembling the matrix
    Solving
  0 KSP Residual norm 0.00316834 
  1 KSP Residual norm < 1.e-11
    Initial residual = 1.00384e-05
    Iter = 0, relRef = 1, res = 0.00316834, resAbs = 1.00384e-05, nIters = 1, maxD = 0.0018152
    Solving
  0 KSP Residual norm < 1.e-11
    Iter = 1, relRef = 0, res = 0, resAbs = 0, nIters = 0, maxD = 0.0018152
    Converged
    Max DEpsilonPEq is 0
    0 cells (0% of the cells in this material) are actively yielding

ExecutionTime = 2.54 s  ClockTime = 4 s

Time = 3.8

Evolving solid solver
    Assembling the matrix
    Solving
  0 KSP Residual norm 0.00316834 
  1 KSP Residual norm < 1.e-11
    Initial residual = 1.00384e-05
    Iter = 0, relRef = 1, res = 0.00316834, resAbs = 1.00384e-05, nIters = 1, maxD = 0.00191605
    Solving
  0 KSP Residual norm < 1.e-11
    Iter = 1, relRef = 0, res = 0, resAbs = 0, nIters = 0, maxD = 0.00191605
    Converged
    Max DEpsilonPEq is 0
    0 cells (0% of the cells in this material) are actively yielding

ExecutionTime = 2.67 s  ClockTime = 4 s

Time = 4

Evolving solid solver
    Assembling the matrix
    Solving
  0 KSP Residual norm 0.00316834 
  1 KSP Residual norm < 1.e-11
    Initial residual = 1.00384e-05
    Iter = 0, relRef = 1, res = 0.00316834, resAbs = 1.00384e-05, nIters = 1, maxD = 0.00201689
    Solving
  0 KSP Residual norm < 1.e-11
    Iter = 1, relRef = 0, res = 0, resAbs = 0, nIters = 0, maxD = 0.00201689
    Converged
    Max DEpsilonPEq is 0
    0 cells (0% of the cells in this material) are actively yielding

Max pEpsilonEq = 0.00234977
Max epsilonEq = 0.00244639
Max sigmaEq (von Mises stress) = 1.97593e+08
ExecutionTime = 2.82 s  ClockTime = 4 s

Time = 4.2

Evolving solid solver
    Assembling the matrix
    Solving
  0 KSP Residual norm 0.00316834 
  1 KSP Residual norm < 1.e-11
    Initial residual = 1.00384e-05
    Iter = 0, relRef = 1, res = 0.00316834, resAbs = 1.00384e-05, nIters = 1, maxD = 0.00211774
    Solving
  0 KSP Residual norm < 1.e-11
    Iter = 1, relRef = 0, res = 0, resAbs = 0, nIters = 0, maxD = 0.00211774
    Converged
    Max DEpsilonPEq is 0
    0 cells (0% of the cells in this material) are actively yielding

ExecutionTime = 2.92 s  ClockTime = 4 s

Time = 4.4

Evolving solid solver
    Assembling the matrix
    Solving
  0 KSP Residual norm 0.00316834 
  1 KSP Residual norm < 1.e-11
    Initial residual = 1.00384e-05
    Iter = 0, relRef = 1, res = 0.00316834, resAbs = 1.00384e-05, nIters = 1, maxD = 0.00221858
    Solving
  0 KSP Residual norm < 1.e-11
    Iter = 1, relRef = 0, res = 0, resAbs = 0, nIters = 0, maxD = 0.00221858
    Converged
    Max DEpsilonPEq is 0
    0 cells (0% of the cells in this material) are actively yielding

ExecutionTime = 3.01 s  ClockTime = 5 s

Time = 4.6

Evolving solid solver
    Assembling the matrix
    Solving
  0 KSP Residual norm 0.00316834 
  1 KSP Residual norm < 1.e-11
    Initial residual = 1.00384e-05
    Iter = 0, relRef = 1, res = 0.00316834, resAbs = 1.00384e-05, nIters = 1, maxD = 0.00231943
    Solving
  0 KSP Residual norm < 1.e-11
    Iter = 1, relRef = 0, res = 0, resAbs = 0, nIters = 0, maxD = 0.00231943
    Converged
    Max DEpsilonPEq is 0
    0 cells (0% of the cells in this material) are actively yielding

ExecutionTime = 3.09 s  ClockTime = 5 s

Time = 4.8

Evolving solid solver
    Assembling the matrix
    Solving
  0 KSP Residual norm 0.00316834 
  1 KSP Residual norm < 1.e-11
    Initial residual = 1.00384e-05
    Iter = 0, relRef = 1, res = 0.00316834, resAbs = 1.00384e-05, nIters = 1, maxD = 0.00242027
    Solving
  0 KSP Residual norm < 1.e-11
    Iter = 1, relRef = 0, res = 0, resAbs = 0, nIters = 0, maxD = 0.00242027
    Converged
    Max DEpsilonPEq is 0
    0 cells (0% of the cells in this material) are actively yielding

ExecutionTime = 3.2 s  ClockTime = 5 s

Time = 5

Evolving solid solver
    Assembling the matrix
    Solving
  0 KSP Residual norm 0.00316834 
  1 KSP Residual norm < 1.e-11
    Initial residual = 1.00384e-05
    Iter = 0, relRef = 1, res = 0.00316834, resAbs = 1.00384e-05, nIters = 1, maxD = 0.00252112
    Solving
  0 KSP Residual norm 8.07993e-06 
  1 KSP Residual norm < 1.e-11
    Iter = 1, relRef = 6.50355e-06, res = 8.07993e-06, resAbs = 6.52852e-11, nIters = 1, maxD = 0.00252129
    Solving
  0 KSP Residual norm 3.27826e-06 
  1 KSP Residual norm < 1.e-11
    Iter = 2, relRef = 1.07059e-06, res = 3.27826e-06, resAbs = 1.0747e-11, nIters = 1, maxD = 0.00252136
    Solving
  0 KSP Residual norm 1.33091e-06 
  1 KSP Residual norm < 1.e-11
    Iter = 3, relRef = 1.76455e-07, res = 1.33091e-06, resAbs = 1.77132e-12, nIters = 1, maxD = 0.00252138
    Solving
  0 KSP Residual norm 5.4046e-07 
  1 KSP Residual norm < 1.e-11
    Iter = 4, relRef = 2.90979e-08, res = 5.4046e-07, resAbs = 2.92097e-13, nIters = 1, maxD = 0.0025214
    Solving
  0 KSP Residual norm 2.19493e-07 
  1 KSP Residual norm < 1.e-11
    Iter = 5, relRef = 4.79931e-09, res = 2.19493e-07, resAbs = 4.81773e-14, nIters = 1, maxD = 0.0025214
    Solving
  0 KSP Residual norm 8.91451e-08 
  1 KSP Residual norm < 1.e-11
    Iter = 6, relRef = 7.91645e-10, res = 8.91451e-08, resAbs = 7.94685e-15, nIters = 1, maxD = 0.0025214
    Solving
  0 KSP Residual norm 3.6206e-08 
  1 KSP Residual norm < 1.e-11
    Iter = 7, relRef = 1.30586e-10, res = 3.6206e-08, resAbs = 1.31088e-15, nIters = 1, maxD = 0.0025214
    Solving
  0 KSP Residual norm 1.47051e-08 
  1 KSP Residual norm < 1.e-11
    Iter = 8, relRef = 2.15412e-11, res = 1.47051e-08, resAbs = 2.16239e-16, nIters = 1, maxD = 0.0025214
    Converged
    Max DEpsilonPEq is 8.31476e-05
    1 cells (0.0527426% of the cells in this material) are actively yielding

Max pEpsilonEq = 0.00294945
Max epsilonEq = 0.00309172
Max sigmaEq (von Mises stress) = 2.43e+08
ExecutionTime = 3.65 s  ClockTime = 5 s

Time = 5.2

Evolving solid solver
    Assembling the matrix
    Solving
  0 KSP Residual norm 0.00318501 
  1 KSP Residual norm < 1.e-11
    Initial residual = 1.01443e-05
    Iter = 0, relRef = 1, res = 0.00318501, resAbs = 1.01443e-05, nIters = 1, maxD = 0.00262264
    Solving
  0 KSP Residual norm 2.11197e-05 
  1 KSP Residual norm < 1.e-11
    Iter = 1, relRef = 4.39695e-05, res = 2.11197e-05, resAbs = 4.4604e-10, nIters = 1, maxD = 0.00262308
    Solving
  0 KSP Residual norm 6.77329e-06 
  1 KSP Residual norm < 1.e-11
    Iter = 2, relRef = 4.52248e-06, res = 6.77329e-06, resAbs = 4.58774e-11, nIters = 1, maxD = 0.00262323
    Solving
  0 KSP Residual norm 2.21285e-06 
  1 KSP Residual norm < 1.e-11
    Iter = 3, relRef = 4.82706e-07, res = 2.21285e-06, resAbs = 4.89672e-12, nIters = 1, maxD = 0.00262328
    Solving
  0 KSP Residual norm 7.79533e-07 
  1 KSP Residual norm < 1.e-11
    Iter = 4, relRef = 5.99027e-08, res = 7.79533e-07, resAbs = 6.07671e-13, nIters = 1, maxD = 0.00262329
    Solving
  0 KSP Residual norm 2.91238e-07 
  1 KSP Residual norm < 1.e-11
    Iter = 5, relRef = 8.36132e-09, res = 2.91238e-07, resAbs = 8.48198e-14, nIters = 1, maxD = 0.0026233
    Solving
  0 KSP Residual norm 1.1349e-07 
  1 KSP Residual norm < 1.e-11
    Iter = 6, relRef = 1.26967e-09, res = 1.1349e-07, resAbs = 1.28799e-14, nIters = 1, maxD = 0.0026233
    Solving
  0 KSP Residual norm 4.54766e-08 
  1 KSP Residual norm < 1.e-11
    Iter = 7, relRef = 2.0387e-10, res = 4.54766e-08, resAbs = 2.06812e-15, nIters = 1, maxD = 0.0026233
    Solving
  0 KSP Residual norm 1.85452e-08 
  1 KSP Residual norm < 1.e-11
    Iter = 8, relRef = 3.39033e-11, res = 1.85452e-08, resAbs = 3.43926e-16, nIters = 1, maxD = 0.0026233
    Converged
    Max DEpsilonPEq is 0.000194875
    2 cells (0.105485% of the cells in this material) are actively yielding

ExecutionTime = 4.01 s  ClockTime = 6 s

Time = 5.4

Evolving solid solver
    Assembling the matrix
    Solving
  0 KSP Residual norm 0.00320449 
  1 KSP Residual norm < 1.e-11
    Initial residual = 1.02688e-05
    Iter = 0, relRef = 1, res = 0.00320449, resAbs = 1.02688e-05, nIters = 1, maxD = 0.00272498
    Solving
  0 KSP Residual norm 2.25759e-05 
  1 KSP Residual norm < 1.e-11
    Iter = 1, relRef = 4.96332e-05, res = 2.25759e-05, resAbs = 5.09672e-10, nIters = 1, maxD = 0.00272546
    Solving
  0 KSP Residual norm 5.41574e-06 
  1 KSP Residual norm < 1.e-11
    Iter = 2, relRef = 2.85625e-06, res = 5.41574e-06, resAbs = 2.93302e-11, nIters = 1, maxD = 0.00272558
    Solving
  0 KSP Residual norm 1.25056e-06 
  1 KSP Residual norm < 1.e-11
    Iter = 3, relRef = 1.52296e-07, res = 1.25056e-06, resAbs = 1.56389e-12, nIters = 1, maxD = 0.00272561
    Solving
  0 KSP Residual norm 2.93281e-07 
  1 KSP Residual norm < 1.e-11
    Iter = 4, relRef = 8.37625e-09, res = 2.93281e-07, resAbs = 8.60138e-14, nIters = 1, maxD = 0.00272561
    Solving
  0 KSP Residual norm 6.93711e-08 
  1 KSP Residual norm < 1.e-11
    Iter = 5, relRef = 4.68638e-10, res = 6.93711e-08, resAbs = 4.81234e-15, nIters = 1, maxD = 0.00272561
    Solving
  0 KSP Residual norm 1.65174e-08 
  1 KSP Residual norm < 1.e-11
    Iter = 6, relRef = 2.65684e-11, res = 1.65174e-08, resAbs = 2.72825e-16, nIters = 1, maxD = 0.00272561
    Converged
    Max DEpsilonPEq is 0.000184385
    2 cells (0.105485% of the cells in this material) are actively yielding

ExecutionTime = 4.3 s  ClockTime = 6 s

Time = 5.6

Evolving solid solver
    Assembling the matrix
    Solving
  0 KSP Residual norm 0.00320433 
  1 KSP Residual norm < 1.e-11
    Initial residual = 1.02677e-05
    Iter = 0, relRef = 1, res = 0.00320433, resAbs = 1.02677e-05, nIters = 1, maxD = 0.00282729
    Solving
  0 KSP Residual norm 2.27778e-05 
  1 KSP Residual norm < 1.e-11
    Iter = 1, relRef = 5.05303e-05, res = 2.27778e-05, resAbs = 5.1883e-10, nIters = 1, maxD = 0.00282778
    Solving
  0 KSP Residual norm 5.5705e-06 
  1 KSP Residual norm < 1.e-11
    Iter = 2, relRef = 3.02215e-06, res = 5.5705e-06, resAbs = 3.10305e-11, nIters = 1, maxD = 0.0028279
    Solving
  0 KSP Residual norm 1.30803e-06 
  1 KSP Residual norm < 1.e-11
    Iter = 3, relRef = 1.66634e-07, res = 1.30803e-06, resAbs = 1.71095e-12, nIters = 1, maxD = 0.00282792
    Solving
  0 KSP Residual norm 3.12423e-07 
  1 KSP Residual norm < 1.e-11
    Iter = 4, relRef = 9.50632e-09, res = 3.12423e-07, resAbs = 9.76081e-14, nIters = 1, maxD = 0.00282793
    Solving
  0 KSP Residual norm 7.53209e-08 
  1 KSP Residual norm < 1.e-11
    Iter = 5, relRef = 5.52532e-10, res = 7.53209e-08, resAbs = 5.67323e-15, nIters = 1, maxD = 0.00282793
    Solving
  0 KSP Residual norm 1.82891e-08 
  1 KSP Residual norm < 1.e-11
    Iter = 6, relRef = 3.2577e-11, res = 1.82891e-08, resAbs = 3.34491e-16, nIters = 1, maxD = 0.00282793
    Converged
    Max DEpsilonPEq is 0.000184967
    2 cells (0.105485% of the cells in this material) are actively yielding

ExecutionTime = 4.57 s  ClockTime = 6 s

Time = 5.8

Evolving solid solver
    Assembling the matrix
    Solving
  0 KSP Residual norm 0.00320416 
  1 KSP Residual norm < 1.e-11
    Initial residual = 1.02667e-05
    Iter = 0, relRef = 1, res = 0.00320416, resAbs = 1.02667e-05, nIters = 1, maxD = 0.00292961
    Solving
  0 KSP Residual norm 3.69996e-05 
  1 KSP Residual norm < 1.e-11
    Iter = 1, relRef = 0.000133341, res = 3.69996e-05, resAbs = 1.36897e-09, nIters = 1, maxD = 0.0029304
    Solving
  0 KSP Residual norm 1.64325e-05 
  1 KSP Residual norm < 1.e-11
    Iter = 2, relRef = 2.63015e-05, res = 1.64325e-05, resAbs = 2.70028e-10, nIters = 1, maxD = 0.00293075
    Solving
  0 KSP Residual norm 7.49079e-06 
  1 KSP Residual norm < 1.e-11
    Iter = 3, relRef = 5.46544e-06, res = 7.49079e-06, resAbs = 5.61119e-11, nIters = 1, maxD = 0.00293091
    Solving
  0 KSP Residual norm 3.47319e-06 
  1 KSP Residual norm < 1.e-11
    Iter = 4, relRef = 1.17497e-06, res = 3.47319e-06, resAbs = 1.20631e-11, nIters = 1, maxD = 0.00293099
    Solving
  0 KSP Residual norm 1.61995e-06 
  1 KSP Residual norm < 1.e-11
    Iter = 5, relRef = 2.55606e-07, res = 1.61995e-06, resAbs = 2.62423e-12, nIters = 1, maxD = 0.00293102
    Solving
  0 KSP Residual norm 7.57403e-07 
  1 KSP Residual norm < 1.e-11
    Iter = 6, relRef = 5.58759e-08, res = 7.57403e-07, resAbs = 5.7366e-13, nIters = 1, maxD = 0.00293104
    Solving
  0 KSP Residual norm 3.54517e-07 
  1 KSP Residual norm < 1.e-11
    Iter = 7, relRef = 1.22418e-08, res = 3.54517e-07, resAbs = 1.25682e-13, nIters = 1, maxD = 0.00293105
    Solving
  0 KSP Residual norm 1.66026e-07 
  1 KSP Residual norm < 1.e-11
    Iter = 8, relRef = 2.68487e-09, res = 1.66026e-07, resAbs = 2.75646e-14, nIters = 1, maxD = 0.00293105
    Solving
  0 KSP Residual norm 7.77726e-08 
  1 KSP Residual norm < 1.e-11
    Iter = 9, relRef = 5.89147e-10, res = 7.77726e-08, resAbs = 6.04858e-15, nIters = 1, maxD = 0.00293105
    Solving
  0 KSP Residual norm 3.64361e-08 
  1 KSP Residual norm < 1.e-11
    Iter = 10, relRef = 1.2931e-10, res = 3.64361e-08, resAbs = 1.32759e-15, nIters = 1, maxD = 0.00293105
    Solving
  0 KSP Residual norm 1.70711e-08 
  1 KSP Residual norm < 1.e-11
    Iter = 11, relRef = 2.83854e-11, res = 1.70711e-08, resAbs = 2.91424e-16, nIters = 1, maxD = 0.00293105
    Converged
    Max DEpsilonPEq is 0.000230348
    3 cells (0.158228% of the cells in this material) are actively yielding

ExecutionTime = 5.04 s  ClockTime = 7 s

Time = 6

Evolving solid solver
    Assembling the matrix
    Solving
  0 KSP Residual norm 0.00321684 
  1 KSP Residual norm < 1.e-11
    Initial residual = 1.0348e-05
    Iter = 0, relRef = 1, res = 0.00321684, resAbs = 1.0348e-05, nIters = 1, maxD = 0.00303303
    Solving
  0 KSP Residual norm 4.76056e-05 
  1 KSP Residual norm < 1.e-11
    Iter = 1, relRef = 0.000219007, res = 4.76056e-05, resAbs = 2.26629e-09, nIters = 1, maxD = 0.00303406
    Solving
  0 KSP Residual norm 1.74586e-05 
  1 KSP Residual norm < 1.e-11
    Iter = 2, relRef = 2.94551e-05, res = 1.74586e-05, resAbs = 3.04803e-10, nIters = 1, maxD = 0.00303444
    Solving
  0 KSP Residual norm 6.33346e-06 
  1 KSP Residual norm < 1.e-11
    Iter = 3, relRef = 3.87636e-06, res = 6.33346e-06, resAbs = 4.01127e-11, nIters = 1, maxD = 0.00303457
    Solving
  0 KSP Residual norm 2.34278e-06 
  1 KSP Residual norm < 1.e-11
    Iter = 4, relRef = 5.30399e-07, res = 2.34278e-06, resAbs = 5.4886e-12, nIters = 1, maxD = 0.00303462
    Solving
  0 KSP Residual norm 8.72052e-07 
  1 KSP Residual norm < 1.e-11
    Iter = 5, relRef = 7.34896e-08, res = 8.72052e-07, resAbs = 7.60474e-13, nIters = 1, maxD = 0.00303464
    Solving
  0 KSP Residual norm 3.26548e-07 
  1 KSP Residual norm < 1.e-11
    Iter = 6, relRef = 1.03047e-08, res = 3.26548e-07, resAbs = 1.06633e-13, nIters = 1, maxD = 0.00303465
    Solving
  0 KSP Residual norm 1.23137e-07 
  1 KSP Residual norm < 1.e-11
    Iter = 7, relRef = 1.46527e-09, res = 1.23137e-07, resAbs = 1.51627e-14, nIters = 1, maxD = 0.00303465
    Solving
  0 KSP Residual norm 4.69084e-08 
  1 KSP Residual norm < 1.e-11
    Iter = 8, relRef = 2.12639e-10, res = 4.69084e-08, resAbs = 2.20039e-15, nIters = 1, maxD = 0.00303465
    Solving
  0 KSP Residual norm 1.81513e-08 
  1 KSP Residual norm < 1.e-11
    Iter = 9, relRef = 3.1839e-11, res = 1.81513e-08, resAbs = 3.29471e-16, nIters = 1, maxD = 0.00303465
    Converged
    Max DEpsilonPEq is 0.000240001
    4 cells (0.21097% of the cells in this material) are actively yielding

Max pEpsilonEq = 0.00393996
Max epsilonEq = 0.00406301
Max sigmaEq (von Mises stress) = 2.43e+08
ExecutionTime = 5.49 s  ClockTime = 7 s

Time = 6.2

Evolving solid solver
    Assembling the matrix
    Solving
  0 KSP Residual norm 0.0032273 
  1 KSP Residual norm < 1.e-11
    Initial residual = 1.04155e-05
    Iter = 0, relRef = 1, res = 0.0032273, resAbs = 1.04155e-05, nIters = 1, maxD = 0.00313687
    Solving
  0 KSP Residual norm 5.76365e-05 
  1 KSP Residual norm < 1.e-11
    Iter = 1, relRef = 0.000318945, res = 5.76365e-05, resAbs = 3.32197e-09, nIters = 1, maxD = 0.00313813
    Solving
  0 KSP Residual norm 2.75372e-05 
  1 KSP Residual norm < 1.e-11
    Iter = 2, relRef = 7.28045e-05, res = 2.75372e-05, resAbs = 7.58295e-10, nIters = 1, maxD = 0.00313874
    Solving
  0 KSP Residual norm 1.27288e-05 
  1 KSP Residual norm < 1.e-11
    Iter = 3, relRef = 1.55558e-05, res = 1.27288e-05, resAbs = 1.62022e-10, nIters = 1, maxD = 0.00313902
    Solving
  0 KSP Residual norm 5.88402e-06 
  1 KSP Residual norm < 1.e-11
    Iter = 4, relRef = 3.32405e-06, res = 5.88402e-06, resAbs = 3.46217e-11, nIters = 1, maxD = 0.00313915
    Solving
  0 KSP Residual norm 2.71965e-06 
  1 KSP Residual norm < 1.e-11
    Iter = 5, relRef = 7.10146e-07, res = 2.71965e-06, resAbs = 7.39652e-12, nIters = 1, maxD = 0.00313921
    Solving
  0 KSP Residual norm 1.25941e-06 
  1 KSP Residual norm < 1.e-11
    Iter = 6, relRef = 1.52284e-07, res = 1.25941e-06, resAbs = 1.58611e-12, nIters = 1, maxD = 0.00313923
    Solving
  0 KSP Residual norm 5.84545e-07 
  1 KSP Residual norm < 1.e-11
    Iter = 7, relRef = 3.28062e-08, res = 5.84545e-07, resAbs = 3.41693e-13, nIters = 1, maxD = 0.00313925
    Solving
  0 KSP Residual norm 2.72063e-07 
  1 KSP Residual norm < 1.e-11
    Iter = 8, relRef = 7.10656e-09, res = 2.72063e-07, resAbs = 7.40184e-14, nIters = 1, maxD = 0.00313925
    Solving
  0 KSP Residual norm 1.27058e-07 
  1 KSP Residual norm < 1.e-11
    Iter = 9, relRef = 1.54997e-09, res = 1.27058e-07, resAbs = 1.61437e-14, nIters = 1, maxD = 0.00313925
    Solving
  0 KSP Residual norm 5.95992e-08 
  1 KSP Residual norm < 1.e-11
    Iter = 10, relRef = 3.41036e-10, res = 5.95992e-08, resAbs = 3.55206e-15, nIters = 1, maxD = 0.00313926
    Solving
  0 KSP Residual norm 2.81223e-08 
  1 KSP Residual norm < 1.e-11
    Iter = 11, relRef = 7.59314e-11, res = 2.81223e-08, resAbs = 7.90863e-16, nIters = 1, maxD = 0.00313926
    Converged
    Max DEpsilonPEq is 0.000237591
    7 cells (0.369198% of the cells in this material) are actively yielding

ExecutionTime = 5.96 s  ClockTime = 8 s

Time = 6.4

Evolving solid solver
    Assembling the matrix
    Solving
  0 KSP Residual norm 0.00326206 
  1 KSP Residual norm < 1.e-11
    Initial residual = 1.0641e-05
    Iter = 0, relRef = 1, res = 0.00326206, resAbs = 1.0641e-05, nIters = 1, maxD = 0.00324229
    Solving
  0 KSP Residual norm 7.8474e-05 
  1 KSP Residual norm < 1.e-11
    Iter = 1, relRef = 0.00057872, res = 7.8474e-05, resAbs = 6.15816e-09, nIters = 1, maxD = 0.00324401
    Solving
  0 KSP Residual norm 3.47931e-05 
  1 KSP Residual norm < 1.e-11
    Iter = 2, relRef = 0.000113764, res = 3.47931e-05, resAbs = 1.21056e-09, nIters = 1, maxD = 0.00324477
    Solving
  0 KSP Residual norm 1.47397e-05 
  1 KSP Residual norm < 1.e-11
    Iter = 3, relRef = 2.04172e-05, res = 1.47397e-05, resAbs = 2.17259e-10, nIters = 1, maxD = 0.00324509
    Solving
  0 KSP Residual norm 6.39005e-06 
  1 KSP Residual norm < 1.e-11
    Iter = 4, relRef = 3.8373e-06, res = 6.39005e-06, resAbs = 4.08327e-11, nIters = 1, maxD = 0.00324523
    Solving
  0 KSP Residual norm 2.79124e-06 
  1 KSP Residual norm < 1.e-11
    Iter = 5, relRef = 7.32171e-07, res = 2.79124e-06, resAbs = 7.79104e-12, nIters = 1, maxD = 0.00324529
    Solving
  0 KSP Residual norm 1.22745e-06 
  1 KSP Residual norm < 1.e-11
    Iter = 6, relRef = 1.41588e-07, res = 1.22745e-06, resAbs = 1.50664e-12, nIters = 1, maxD = 0.00324532
    Solving
  0 KSP Residual norm 5.42876e-07 
  1 KSP Residual norm < 1.e-11
    Iter = 7, relRef = 2.76961e-08, res = 5.42876e-07, resAbs = 2.94715e-13, nIters = 1, maxD = 0.00324533
    Solving
  0 KSP Residual norm 2.41489e-07 
  1 KSP Residual norm < 1.e-11
    Iter = 8, relRef = 5.48042e-09, res = 2.41489e-07, resAbs = 5.83172e-14, nIters = 1, maxD = 0.00324534
    Solving
  0 KSP Residual norm 1.08101e-07 
  1 KSP Residual norm < 1.e-11
    Iter = 9, relRef = 1.09818e-09, res = 1.08101e-07, resAbs = 1.16858e-14, nIters = 1, maxD = 0.00324534
    Solving
  0 KSP Residual norm 4.87431e-08 
  1 KSP Residual norm < 1.e-11
    Iter = 10, relRef = 2.23277e-10, res = 4.87431e-08, resAbs = 2.37589e-15, nIters = 1, maxD = 0.00324534
    Solving
  0 KSP Residual norm 2.21683e-08 
  1 KSP Residual norm < 1.e-11
    Iter = 11, relRef = 4.61831e-11, res = 2.21683e-08, resAbs = 4.91435e-16, nIters = 1, maxD = 0.00324534
    Converged
    Max DEpsilonPEq is 0.000281954
    7 cells (0.369198% of the cells in this material) are actively yielding

ExecutionTime = 6.47 s  ClockTime = 8 s

Time = 6.6

Evolving solid solver
    Assembling the matrix
    Solving
  0 KSP Residual norm 0.00326122 
  1 KSP Residual norm < 1.e-11
    Initial residual = 1.06355e-05
    Iter = 0, relRef = 1, res = 0.00326122, resAbs = 1.06355e-05, nIters = 1, maxD = 0.00334835
    Solving
  0 KSP Residual norm 9.3813e-05 
  1 KSP Residual norm < 1.e-11
    Iter = 1, relRef = 0.000827498, res = 9.3813e-05, resAbs = 8.80088e-09, nIters = 1, maxD = 0.00335041
    Solving
  0 KSP Residual norm 4.31056e-05 
  1 KSP Residual norm < 1.e-11
    Iter = 2, relRef = 0.000174706, res = 4.31056e-05, resAbs = 1.8581e-09, nIters = 1, maxD = 0.00335135
    Solving
  0 KSP Residual norm 1.93268e-05 
  1 KSP Residual norm < 1.e-11
    Iter = 3, relRef = 3.51206e-05, res = 1.93268e-05, resAbs = 3.73526e-10, nIters = 1, maxD = 0.00335177
    Solving
  0 KSP Residual norm 8.92133e-06 
  1 KSP Residual norm < 1.e-11
    Iter = 4, relRef = 7.48342e-06, res = 8.92133e-06, resAbs = 7.95901e-11, nIters = 1, maxD = 0.00335196
    Solving
  0 KSP Residual norm 4.17823e-06 
  1 KSP Residual norm < 1.e-11
    Iter = 5, relRef = 1.64144e-06, res = 4.17823e-06, resAbs = 1.74576e-11, nIters = 1, maxD = 0.00335205
    Solving
  0 KSP Residual norm 1.98606e-06 
  1 KSP Residual norm < 1.e-11
    Iter = 6, relRef = 3.70873e-07, res = 1.98606e-06, resAbs = 3.94443e-12, nIters = 1, maxD = 0.00335209
    Solving
  0 KSP Residual norm 9.58589e-07 
  1 KSP Residual norm < 1.e-11
    Iter = 7, relRef = 8.63984e-08, res = 9.58589e-07, resAbs = 9.18893e-13, nIters = 1, maxD = 0.00335211
    Solving
  0 KSP Residual norm 4.70317e-07 
  1 KSP Residual norm < 1.e-11
    Iter = 8, relRef = 2.0798e-08, res = 4.70317e-07, resAbs = 2.21198e-13, nIters = 1, maxD = 0.00335212
    Solving
  0 KSP Residual norm 2.34804e-07 
  1 KSP Residual norm < 1.e-11
    Iter = 9, relRef = 5.18384e-09, res = 2.34804e-07, resAbs = 5.51329e-14, nIters = 1, maxD = 0.00335213
    Solving
  0 KSP Residual norm 1.19357e-07 
  1 KSP Residual norm < 1.e-11
    Iter = 10, relRef = 1.33947e-09, res = 1.19357e-07, resAbs = 1.4246e-14, nIters = 1, maxD = 0.00335213
    Solving
  0 KSP Residual norm 6.17773e-08 
  1 KSP Residual norm < 1.e-11
    Iter = 11, relRef = 3.58839e-10, res = 6.17773e-08, resAbs = 3.81644e-15, nIters = 1, maxD = 0.00335213
    Solving
  0 KSP Residual norm 3.2538e-08 
  1 KSP Residual norm < 1.e-11
    Iter = 12, relRef = 9.95456e-11, res = 3.2538e-08, resAbs = 1.05872e-15, nIters = 1, maxD = 0.00335213
    Converged
    Max DEpsilonPEq is 0.000294534
    8 cells (0.421941% of the cells in this material) are actively yielding

ExecutionTime = 7 s  ClockTime = 9 s

Time = 6.8

Evolving solid solver
    Assembling the matrix
    Solving
  0 KSP Residual norm 0.00327351 
  1 KSP Residual norm < 1.e-11
    Initial residual = 1.07158e-05
    Iter = 0, relRef = 1, res = 0.00327351, resAbs = 1.07158e-05, nIters = 1, maxD = 0.00345543
    Solving
  0 KSP Residual norm 0.000104283 
  1 KSP Residual norm < 1.e-11
    Iter = 1, relRef = 0.00101486, res = 0.000104283, resAbs = 1.0875e-08, nIters = 1, maxD = 0.00345773
    Solving
  0 KSP Residual norm 4.97223e-05 
  1 KSP Residual norm < 1.e-11
    Iter = 2, relRef = 0.000230715, res = 4.97223e-05, resAbs = 2.4723e-09, nIters = 1, maxD = 0.00345882
    Solving
  0 KSP Residual norm 2.42242e-05 
  1 KSP Residual norm < 1.e-11
    Iter = 3, relRef = 5.4761e-05, res = 2.42242e-05, resAbs = 5.8681e-10, nIters = 1, maxD = 0.00345935
    Solving
  0 KSP Residual norm 1.30923e-05 
  1 KSP Residual norm < 1.e-11
    Iter = 4, relRef = 1.59958e-05, res = 1.30923e-05, resAbs = 1.71408e-10, nIters = 1, maxD = 0.00345964
    Solving
  0 KSP Residual norm 6.87887e-06 
  1 KSP Residual norm < 1.e-11
    Iter = 5, relRef = 4.41579e-06, res = 6.87887e-06, resAbs = 4.73189e-11, nIters = 1, maxD = 0.00345979
    Solving
  0 KSP Residual norm 3.7135e-06 
  1 KSP Residual norm < 1.e-11
    Iter = 6, relRef = 1.28689e-06, res = 3.7135e-06, resAbs = 1.37901e-11, nIters = 1, maxD = 0.00345987
    Solving
  0 KSP Residual norm 2.06412e-06 
  1 KSP Residual norm < 1.e-11
    Iter = 7, relRef = 3.97596e-07, res = 2.06412e-06, resAbs = 4.26057e-12, nIters = 1, maxD = 0.00345992
    Solving
  0 KSP Residual norm 1.18128e-06 
  1 KSP Residual norm < 1.e-11
    Iter = 8, relRef = 1.30222e-07, res = 1.18128e-06, resAbs = 1.39543e-12, nIters = 1, maxD = 0.00345995
    Solving
  0 KSP Residual norm 6.95257e-07 
  1 KSP Residual norm < 1.e-11
    Iter = 9, relRef = 4.51091e-08, res = 6.95257e-07, resAbs = 4.83382e-13, nIters = 1, maxD = 0.00345996
    Solving
  0 KSP Residual norm 4.19863e-07 
  1 KSP Residual norm < 1.e-11
    Iter = 10, relRef = 1.64509e-08, res = 4.19863e-07, resAbs = 1.76285e-13, nIters = 1, maxD = 0.00345997
    Solving
  0 KSP Residual norm 2.59356e-07 
  1 KSP Residual norm < 1.e-11
    Iter = 11, relRef = 6.27719e-09, res = 2.59356e-07, resAbs = 6.72653e-14, nIters = 1, maxD = 0.00345998
    Solving
  0 KSP Residual norm 1.63308e-07 
  1 KSP Residual norm < 1.e-11
    Iter = 12, relRef = 2.48879e-09, res = 1.63308e-07, resAbs = 2.66695e-14, nIters = 1, maxD = 0.00345998
    Solving
  0 KSP Residual norm 1.04461e-07 
  1 KSP Residual norm < 1.e-11
    Iter = 13, relRef = 1.01832e-09, res = 1.04461e-07, resAbs = 1.09122e-14, nIters = 1, maxD = 0.00345998
    Solving
  0 KSP Residual norm 6.76685e-08 
  1 KSP Residual norm < 1.e-11
    Iter = 14, relRef = 4.27314e-10, res = 6.76685e-08, resAbs = 4.57903e-15, nIters = 1, maxD = 0.00345998
    Solving
  0 KSP Residual norm 4.42727e-08 
  1 KSP Residual norm < 1.e-11
    Iter = 15, relRef = 1.82914e-10, res = 4.42727e-08, resAbs = 1.96007e-15, nIters = 1, maxD = 0.00345999
    Solving
  0 KSP Residual norm 2.91906e-08 
  1 KSP Residual norm < 1.e-11
    Iter = 16, relRef = 7.95171e-11, res = 2.91906e-08, resAbs = 8.52092e-16, nIters = 1, maxD = 0.00345999
    Converged
    Max DEpsilonPEq is 0.000299776
    9 cells (0.474684% of the cells in this material) are actively yielding

ExecutionTime = 7.66 s  ClockTime = 10 s

Time = 7

Evolving solid solver
    Assembling the matrix
    Solving
  0 KSP Residual norm 0.0032845 
  1 KSP Residual norm < 1.e-11
    Initial residual = 1.07879e-05
    Iter = 0, relRef = 1, res = 0.0032845, resAbs = 1.07879e-05, nIters = 1, maxD = 0.00356355
    Solving
  0 KSP Residual norm 0.000124735 
  1 KSP Residual norm < 1.e-11
    Iter = 1, relRef = 0.00144223, res = 0.000124735, resAbs = 1.55587e-08, nIters = 1, maxD = 0.00356631
    Solving
  0 KSP Residual norm 6.33596e-05 
  1 KSP Residual norm < 1.e-11
    Iter = 2, relRef = 0.000372124, res = 6.33596e-05, resAbs = 4.01444e-09, nIters = 1, maxD = 0.0035677
    Solving
  0 KSP Residual norm 3.21506e-05 
  1 KSP Residual norm < 1.e-11
    Iter = 3, relRef = 9.58168e-05, res = 3.21506e-05, resAbs = 1.03366e-09, nIters = 1, maxD = 0.00356841
    Solving
  0 KSP Residual norm 1.6897e-05 
  1 KSP Residual norm < 1.e-11
    Iter = 4, relRef = 2.64655e-05, res = 1.6897e-05, resAbs = 2.85508e-10, nIters = 1, maxD = 0.00356878
    Solving
  0 KSP Residual norm 9.05871e-06 
  1 KSP Residual norm < 1.e-11
    Iter = 5, relRef = 7.60668e-06, res = 9.05871e-06, resAbs = 8.20603e-11, nIters = 1, maxD = 0.00356898
    Solving
  0 KSP Residual norm 4.93028e-06 
  1 KSP Residual norm < 1.e-11
    Iter = 6, relRef = 2.25323e-06, res = 4.93028e-06, resAbs = 2.43077e-11, nIters = 1, maxD = 0.00356909
    Solving
  0 KSP Residual norm 2.71271e-06 
  1 KSP Residual norm < 1.e-11
    Iter = 7, relRef = 6.82134e-07, res = 2.71271e-06, resAbs = 7.35881e-12, nIters = 1, maxD = 0.00356914
    Solving
  0 KSP Residual norm 1.50462e-06 
  1 KSP Residual norm < 1.e-11
    Iter = 8, relRef = 2.09853e-07, res = 1.50462e-06, resAbs = 2.26388e-12, nIters = 1, maxD = 0.00356918
    Solving
  0 KSP Residual norm 8.39587e-07 
  1 KSP Residual norm < 1.e-11
    Iter = 9, relRef = 6.53421e-08, res = 8.39587e-07, resAbs = 7.04906e-13, nIters = 1, maxD = 0.0035692
    Solving
  0 KSP Residual norm 4.70661e-07 
  1 KSP Residual norm < 1.e-11
    Iter = 10, relRef = 2.05343e-08, res = 4.70661e-07, resAbs = 2.21522e-13, nIters = 1, maxD = 0.00356921
    Solving
  0 KSP Residual norm 2.64804e-07 
  1 KSP Residual norm < 1.e-11
    Iter = 11, relRef = 6.49995e-09, res = 2.64804e-07, resAbs = 7.0121e-14, nIters = 1, maxD = 0.00356921
    Solving
  0 KSP Residual norm 1.4942e-07 
  1 KSP Residual norm < 1.e-11
    Iter = 12, relRef = 2.06958e-09, res = 1.4942e-07, resAbs = 2.23264e-14, nIters = 1, maxD = 0.00356922
    Solving
  0 KSP Residual norm 8.45188e-08 
  1 KSP Residual norm < 1.e-11
    Iter = 13, relRef = 6.62169e-10, res = 8.45188e-08, resAbs = 7.14343e-15, nIters = 1, maxD = 0.00356922
    Solving
  0 KSP Residual norm 4.7908e-08 
  1 KSP Residual norm < 1.e-11
    Iter = 14, relRef = 2.12755e-10, res = 4.7908e-08, resAbs = 2.29518e-15, nIters = 1, maxD = 0.00356922
    Solving
  0 KSP Residual norm 2.72069e-08 
  1 KSP Residual norm < 1.e-11
    Iter = 15, relRef = 6.8615e-11, res = 2.72069e-08, resAbs = 7.40213e-16, nIters = 1, maxD = 0.00356922
    Converged
    Max DEpsilonPEq is 0.000323834
    11 cells (0.580169% of the cells in this material) are actively yielding

Max pEpsilonEq = 0.00535655
Max epsilonEq = 0.00541348
Max sigmaEq (von Mises stress) = 2.43e+08
ExecutionTime = 8.38 s  ClockTime = 11 s

Time = 7.2

Evolving solid solver
    Assembling the matrix
    Solving
  0 KSP Residual norm 0.0033027 
  1 KSP Residual norm < 1.e-11
    Initial residual = 1.09078e-05
    Iter = 0, relRef = 1, res = 0.0033027, resAbs = 1.09078e-05, nIters = 1, maxD = 0.00367321
    Solving
  0 KSP Residual norm 0.000130872 
  1 KSP Residual norm < 1.e-11
    Iter = 1, relRef = 0.0015702, res = 0.000130872, resAbs = 1.71274e-08, nIters = 1, maxD = 0.00367611
    Solving
  0 KSP Residual norm 6.89747e-05 
  1 KSP Residual norm < 1.e-11
    Iter = 2, relRef = 0.000436156, res = 6.89747e-05, resAbs = 4.7575e-09, nIters = 1, maxD = 0.00367763
    Solving
  0 KSP Residual norm 3.5959e-05 
  1 KSP Residual norm < 1.e-11
    Iter = 3, relRef = 0.000118543, res = 3.5959e-05, resAbs = 1.29305e-09, nIters = 1, maxD = 0.00367842
    Solving
  0 KSP Residual norm 1.93309e-05 
  1 KSP Residual norm < 1.e-11
    Iter = 4, relRef = 3.42584e-05, res = 1.93309e-05, resAbs = 3.73684e-10, nIters = 1, maxD = 0.00367884
    Solving
  0 KSP Residual norm 1.06945e-05 
  1 KSP Residual norm < 1.e-11
    Iter = 5, relRef = 1.04853e-05, res = 1.06945e-05, resAbs = 1.14371e-10, nIters = 1, maxD = 0.00367908
    Solving
  0 KSP Residual norm 6.23258e-06 
  1 KSP Residual norm < 1.e-11
    Iter = 6, relRef = 3.56122e-06, res = 6.23258e-06, resAbs = 3.88451e-11, nIters = 1, maxD = 0.00367922
    Solving
  0 KSP Residual norm 3.67253e-06 
  1 KSP Residual norm < 1.e-11
    Iter = 7, relRef = 1.2365e-06, res = 3.67253e-06, resAbs = 1.34875e-11, nIters = 1, maxD = 0.0036793
    Solving
  0 KSP Residual norm 2.19031e-06 
  1 KSP Residual norm < 1.e-11
    Iter = 8, relRef = 4.3982e-07, res = 2.19031e-06, resAbs = 4.79748e-12, nIters = 1, maxD = 0.00367935
    Solving
  0 KSP Residual norm 1.31829e-06 
  1 KSP Residual norm < 1.e-11
    Iter = 9, relRef = 1.59326e-07, res = 1.31829e-06, resAbs = 1.73789e-12, nIters = 1, maxD = 0.00367937
    Solving
  0 KSP Residual norm 7.99087e-07 
  1 KSP Residual norm < 1.e-11
    Iter = 10, relRef = 5.85397e-08, res = 7.99087e-07, resAbs = 6.3854e-13, nIters = 1, maxD = 0.00367939
    Solving
  0 KSP Residual norm 4.87169e-07 
  1 KSP Residual norm < 1.e-11
    Iter = 11, relRef = 2.17582e-08, res = 4.87169e-07, resAbs = 2.37334e-13, nIters = 1, maxD = 0.0036794
    Solving
  0 KSP Residual norm 2.98473e-07 
  1 KSP Residual norm < 1.e-11
    Iter = 12, relRef = 8.16717e-09, res = 2.98473e-07, resAbs = 8.9086e-14, nIters = 1, maxD = 0.00367941
    Solving
  0 KSP Residual norm 1.8367e-07 
  1 KSP Residual norm < 1.e-11
    Iter = 13, relRef = 3.0927e-09, res = 1.8367e-07, resAbs = 3.37346e-14, nIters = 1, maxD = 0.00367941
    Solving
  0 KSP Residual norm 1.13483e-07 
  1 KSP Residual norm < 1.e-11
    Iter = 14, relRef = 1.18066e-09, res = 1.13483e-07, resAbs = 1.28784e-14, nIters = 1, maxD = 0.00367942
    Solving
  0 KSP Residual norm 7.03857e-08 
  1 KSP Residual norm < 1.e-11
    Iter = 15, relRef = 4.54184e-10, res = 7.03857e-08, resAbs = 4.95415e-15, nIters = 1, maxD = 0.00367942
    Solving
  0 KSP Residual norm 4.38159e-08 
  1 KSP Residual norm < 1.e-11
    Iter = 16, relRef = 1.76005e-10, res = 4.38159e-08, resAbs = 1.91983e-15, nIters = 1, maxD = 0.00367942
    Solving
  0 KSP Residual norm 2.73729e-08 
  1 KSP Residual norm < 1.e-11
    Iter = 17, relRef = 6.86918e-11, res = 2.73729e-08, resAbs = 7.49277e-16, nIters = 1, maxD = 0.00367942
    Converged
    Max DEpsilonPEq is 0.000327394
    13 cells (0.685654% of the cells in this material) are actively yielding

ExecutionTime = 9.06 s  ClockTime = 11 s

Time = 7.4

Evolving solid solver
    Assembling the matrix
    Solving
  0 KSP Residual norm 0.0033258 
  1 KSP Residual norm < 1.e-11
    Initial residual = 1.1061e-05
    Iter = 0, relRef = 1, res = 0.0033258, resAbs = 1.1061e-05, nIters = 1, maxD = 0.00378396
    Solving
  0 KSP Residual norm 0.000155737 
  1 KSP Residual norm < 1.e-11
    Iter = 1, relRef = 0.00219275, res = 0.000155737, resAbs = 2.4254e-08, nIters = 1, maxD = 0.00378741
    Solving
  0 KSP Residual norm 8.96491e-05 
  1 KSP Residual norm < 1.e-11
    Iter = 2, relRef = 0.000726606, res = 8.96491e-05, resAbs = 8.03696e-09, nIters = 1, maxD = 0.00378939
    Solving
  0 KSP Residual norm 5.09003e-05 
  1 KSP Residual norm < 1.e-11
    Iter = 3, relRef = 0.000234233, res = 5.09003e-05, resAbs = 2.59084e-09, nIters = 1, maxD = 0.00379051
    Solving
  0 KSP Residual norm 2.98316e-05 
  1 KSP Residual norm < 1.e-11
    Iter = 4, relRef = 8.04564e-05, res = 2.98316e-05, resAbs = 8.89925e-10, nIters = 1, maxD = 0.00379117
    Solving
  0 KSP Residual norm 1.80933e-05 
  1 KSP Residual norm < 1.e-11
    Iter = 5, relRef = 2.95967e-05, res = 1.80933e-05, resAbs = 3.27368e-10, nIters = 1, maxD = 0.00379157
    Solving
  0 KSP Residual norm 1.09669e-05 
  1 KSP Residual norm < 1.e-11
    Iter = 6, relRef = 1.08735e-05, res = 1.09669e-05, resAbs = 1.20272e-10, nIters = 1, maxD = 0.00379181
    Solving
  0 KSP Residual norm 6.6806e-06 
  1 KSP Residual norm < 1.e-11
    Iter = 7, relRef = 4.03495e-06, res = 6.6806e-06, resAbs = 4.46304e-11, nIters = 1, maxD = 0.00379195
    Solving
  0 KSP Residual norm 4.08724e-06 
  1 KSP Residual norm < 1.e-11
    Iter = 8, relRef = 1.51031e-06, res = 4.08724e-06, resAbs = 1.67055e-11, nIters = 1, maxD = 0.00379204
    Solving
  0 KSP Residual norm 2.50944e-06 
  1 KSP Residual norm < 1.e-11
    Iter = 9, relRef = 5.69327e-07, res = 2.50944e-06, resAbs = 6.2973e-12, nIters = 1, maxD = 0.0037921
    Solving
  0 KSP Residual norm 1.54546e-06 
  1 KSP Residual norm < 1.e-11
    Iter = 10, relRef = 2.15934e-07, res = 1.54546e-06, resAbs = 2.38844e-12, nIters = 1, maxD = 0.00379213
    Solving
  0 KSP Residual norm 9.54442e-07 
  1 KSP Residual norm < 1.e-11
    Iter = 11, relRef = 8.23582e-08, res = 9.54442e-07, resAbs = 9.1096e-13, nIters = 1, maxD = 0.00379215
    Solving
  0 KSP Residual norm 5.91001e-07 
  1 KSP Residual norm < 1.e-11
    Iter = 12, relRef = 3.15779e-08, res = 5.91001e-07, resAbs = 3.49282e-13, nIters = 1, maxD = 0.00379217
    Solving
  0 KSP Residual norm 3.66888e-07 
  1 KSP Residual norm < 1.e-11
    Iter = 13, relRef = 1.21695e-08, res = 3.66888e-07, resAbs = 1.34606e-13, nIters = 1, maxD = 0.00379218
    Solving
  0 KSP Residual norm 2.28331e-07 
  1 KSP Residual norm < 1.e-11
    Iter = 14, relRef = 4.71342e-09, res = 2.28331e-07, resAbs = 5.21349e-14, nIters = 1, maxD = 0.00379218
    Solving
  0 KSP Residual norm 1.42453e-07 
  1 KSP Residual norm < 1.e-11
    Iter = 15, relRef = 1.83464e-09, res = 1.42453e-07, resAbs = 2.02929e-14, nIters = 1, maxD = 0.00379218
    Solving
  0 KSP Residual norm 8.90944e-08 
  1 KSP Residual norm < 1.e-11
    Iter = 16, relRef = 7.17642e-10, res = 8.90944e-08, resAbs = 7.93781e-15, nIters = 1, maxD = 0.00379219
    Solving
  0 KSP Residual norm 5.58595e-08 
  1 KSP Residual norm < 1.e-11
    Iter = 17, relRef = 2.82099e-10, res = 5.58595e-08, resAbs = 3.12029e-15, nIters = 1, maxD = 0.00379219
    Solving
  0 KSP Residual norm 3.51084e-08 
  1 KSP Residual norm < 1.e-11
    Iter = 18, relRef = 1.11437e-10, res = 3.51084e-08, resAbs = 1.2326e-15, nIters = 1, maxD = 0.00379219
    Solving
  0 KSP Residual norm 2.21203e-08 
  1 KSP Residual norm < 1.e-11
    Iter = 19, relRef = 4.42374e-11, res = 2.21203e-08, resAbs = 4.89308e-16, nIters = 1, maxD = 0.00379219
    Converged
    Max DEpsilonPEq is 0.000364725
    15 cells (0.791139% of the cells in this material) are actively yielding

ExecutionTime = 9.81 s  ClockTime = 12 s

Time = 7.6

Evolving solid solver
    Assembling the matrix
    Solving
  0 KSP Residual norm 0.00334311 
  1 KSP Residual norm < 1.e-11
    Initial residual = 1.11764e-05
    Iter = 0, relRef = 1, res = 0.00334311, resAbs = 1.11764e-05, nIters = 1, maxD = 0.00389714
    Solving
  0 KSP Residual norm 0.000176474 
  1 KSP Residual norm < 1.e-11
    Iter = 1, relRef = 0.00278649, res = 0.000176474, resAbs = 3.11429e-08, nIters = 1, maxD = 0.00390107
    Solving
  0 KSP Residual norm 9.94932e-05 
  1 KSP Residual norm < 1.e-11
    Iter = 2, relRef = 0.000885696, res = 9.94932e-05, resAbs = 9.89889e-09, nIters = 1, maxD = 0.00390327
    Solving
  0 KSP Residual norm 5.55233e-05 
  1 KSP Residual norm < 1.e-11
    Iter = 3, relRef = 0.000275834, res = 5.55233e-05, resAbs = 3.08284e-09, nIters = 1, maxD = 0.0039045
    Solving
  0 KSP Residual norm 3.17599e-05 
  1 KSP Residual norm < 1.e-11
    Iter = 4, relRef = 9.02519e-05, res = 3.17599e-05, resAbs = 1.00869e-09, nIters = 1, maxD = 0.0039052
    Solving
  0 KSP Residual norm 1.84689e-05 
  1 KSP Residual norm < 1.e-11
    Iter = 5, relRef = 3.05197e-05, res = 1.84689e-05, resAbs = 3.41101e-10, nIters = 1, maxD = 0.00390561
    Solving
  0 KSP Residual norm 1.08992e-05 
  1 KSP Residual norm < 1.e-11
    Iter = 6, relRef = 1.0629e-05, res = 1.08992e-05, resAbs = 1.18794e-10, nIters = 1, maxD = 0.00390585
    Solving
  0 KSP Residual norm 6.51716e-06 
  1 KSP Residual norm < 1.e-11
    Iter = 7, relRef = 3.80027e-06, res = 6.51716e-06, resAbs = 4.24734e-11, nIters = 1, maxD = 0.00390599
    Solving
  0 KSP Residual norm 3.94343e-06 
  1 KSP Residual norm < 1.e-11
    Iter = 8, relRef = 1.39138e-06, res = 3.94343e-06, resAbs = 1.55506e-11, nIters = 1, maxD = 0.00390608
    Solving
  0 KSP Residual norm 2.41175e-06 
  1 KSP Residual norm < 1.e-11
    Iter = 9, relRef = 5.20432e-07, res = 2.41175e-06, resAbs = 5.81656e-12, nIters = 1, maxD = 0.00390613
    Solving
  0 KSP Residual norm 1.4892e-06 
  1 KSP Residual norm < 1.e-11
    Iter = 10, relRef = 1.98428e-07, res = 1.4892e-06, resAbs = 2.21771e-12, nIters = 1, maxD = 0.00390616
    Solving
  0 KSP Residual norm 9.27415e-07 
  1 KSP Residual norm < 1.e-11
    Iter = 11, relRef = 7.69566e-08, res = 9.27415e-07, resAbs = 8.60098e-13, nIters = 1, maxD = 0.00390618
    Solving
  0 KSP Residual norm 5.81926e-07 
  1 KSP Residual norm < 1.e-11
    Iter = 12, relRef = 3.02994e-08, res = 5.81926e-07, resAbs = 3.38638e-13, nIters = 1, maxD = 0.0039062
    Solving
  0 KSP Residual norm 3.67571e-07 
  1 KSP Residual norm < 1.e-11
    Iter = 13, relRef = 1.20887e-08, res = 3.67571e-07, resAbs = 1.35109e-13, nIters = 1, maxD = 0.00390621
    Solving
  0 KSP Residual norm 2.33529e-07 
  1 KSP Residual norm < 1.e-11
    Iter = 14, relRef = 4.87955e-09, res = 2.33529e-07, resAbs = 5.45358e-14, nIters = 1, maxD = 0.00390621
    Solving
  0 KSP Residual norm 1.49127e-07 
  1 KSP Residual norm < 1.e-11
    Iter = 15, relRef = 1.98979e-09, res = 1.49127e-07, resAbs = 2.22387e-14, nIters = 1, maxD = 0.00390621
    Solving
  0 KSP Residual norm 9.56562e-08 
  1 KSP Residual norm < 1.e-11
    Iter = 16, relRef = 8.18699e-10, res = 9.56562e-08, resAbs = 9.15011e-15, nIters = 1, maxD = 0.00390622
    Solving
  0 KSP Residual norm 6.16004e-08 
  1 KSP Residual norm < 1.e-11
    Iter = 17, relRef = 3.3952e-10, res = 6.16004e-08, resAbs = 3.79461e-15, nIters = 1, maxD = 0.00390622
    Solving
  0 KSP Residual norm 3.98081e-08 
  1 KSP Residual norm < 1.e-11
    Iter = 18, relRef = 1.41788e-10, res = 3.98081e-08, resAbs = 1.58468e-15, nIters = 1, maxD = 0.00390622
    Solving
  0 KSP Residual norm 2.58054e-08 
  1 KSP Residual norm < 1.e-11
    Iter = 19, relRef = 5.95827e-11, res = 2.58054e-08, resAbs = 6.65921e-16, nIters = 1, maxD = 0.00390622
    Converged
    Max DEpsilonPEq is 0.000375863
    16 cells (0.843882% of the cells in this material) are actively yielding

ExecutionTime = 10.58 s  ClockTime = 13 s

Time = 7.8

Evolving solid solver
    Assembling the matrix
    Solving
  0 KSP Residual norm 0.00334764 
  1 KSP Residual norm < 1.e-11
    Initial residual = 1.12067e-05
    Iter = 0, relRef = 1, res = 0.00334764, resAbs = 1.12067e-05, nIters = 1, maxD = 0.00401128
    Solving
  0 KSP Residual norm 0.000174582 
  1 KSP Residual norm < 1.e-11
    Iter = 1, relRef = 0.0027197, res = 0.000174582, resAbs = 3.04789e-08, nIters = 1, maxD = 0.00401517
    Solving
  0 KSP Residual norm 0.000100779 
  1 KSP Residual norm < 1.e-11
    Iter = 2, relRef = 0.000906279, res = 0.000100779, resAbs = 1.01564e-08, nIters = 1, maxD = 0.0040174
    Solving
  0 KSP Residual norm 5.68516e-05 
  1 KSP Residual norm < 1.e-11
    Iter = 3, relRef = 0.000288408, res = 5.68516e-05, resAbs = 3.2321e-09, nIters = 1, maxD = 0.00401866
    Solving
  0 KSP Residual norm 3.48097e-05 
  1 KSP Residual norm < 1.e-11
    Iter = 4, relRef = 0.000108124, res = 3.48097e-05, resAbs = 1.21172e-09, nIters = 1, maxD = 0.00401943
    Solving
  0 KSP Residual norm 2.19509e-05 
  1 KSP Residual norm < 1.e-11
    Iter = 5, relRef = 4.29958e-05, res = 2.19509e-05, resAbs = 4.81842e-10, nIters = 1, maxD = 0.00401991
    Solving
  0 KSP Residual norm 1.41627e-05 
  1 KSP Residual norm < 1.e-11
    Iter = 6, relRef = 1.78985e-05, res = 1.41627e-05, resAbs = 2.00583e-10, nIters = 1, maxD = 0.00402022
    Solving
  0 KSP Residual norm 9.29111e-06 
  1 KSP Residual norm < 1.e-11
    Iter = 7, relRef = 7.70295e-06, res = 9.29111e-06, resAbs = 8.63247e-11, nIters = 1, maxD = 0.00402043
    Solving
  0 KSP Residual norm 6.17046e-06 
  1 KSP Residual norm < 1.e-11
    Iter = 8, relRef = 3.39748e-06, res = 6.17046e-06, resAbs = 3.80745e-11, nIters = 1, maxD = 0.00402056
    Solving
  0 KSP Residual norm 4.13533e-06 
  1 KSP Residual norm < 1.e-11
    Iter = 9, relRef = 1.52596e-06, res = 4.13533e-06, resAbs = 1.7101e-11, nIters = 1, maxD = 0.00402065
    Solving
  0 KSP Residual norm 2.7904e-06 
  1 KSP Residual norm < 1.e-11
    Iter = 10, relRef = 6.9479e-07, res = 2.7904e-06, resAbs = 7.78631e-12, nIters = 1, maxD = 0.00402071
    Solving
  0 KSP Residual norm 1.89276e-06 
  1 KSP Residual norm < 1.e-11
    Iter = 11, relRef = 3.19677e-07, res = 1.89276e-06, resAbs = 3.58252e-12, nIters = 1, maxD = 0.00402076
    Solving
  0 KSP Residual norm 1.28918e-06 
  1 KSP Residual norm < 1.e-11
    Iter = 12, relRef = 1.48302e-07, res = 1.28918e-06, resAbs = 1.66198e-12, nIters = 1, maxD = 0.00402078
    Solving
  0 KSP Residual norm 8.8101e-07 
  1 KSP Residual norm < 1.e-11
    Iter = 13, relRef = 6.92601e-08, res = 8.8101e-07, resAbs = 7.76178e-13, nIters = 1, maxD = 0.0040208
    Solving
  0 KSP Residual norm 6.03745e-07 
  1 KSP Residual norm < 1.e-11
    Iter = 14, relRef = 3.25258e-08, res = 6.03745e-07, resAbs = 3.64507e-13, nIters = 1, maxD = 0.00402082
    Solving
  0 KSP Residual norm 4.14719e-07 
  1 KSP Residual norm < 1.e-11
    Iter = 15, relRef = 1.53472e-08, res = 4.14719e-07, resAbs = 1.71992e-13, nIters = 1, maxD = 0.00402083
    Solving
  0 KSP Residual norm 2.85463e-07 
  1 KSP Residual norm < 1.e-11
    Iter = 16, relRef = 7.27145e-09, res = 2.85463e-07, resAbs = 8.1489e-14, nIters = 1, maxD = 0.00402083
    Solving
  0 KSP Residual norm 1.96852e-07 
  1 KSP Residual norm < 1.e-11
    Iter = 17, relRef = 3.45783e-09, res = 1.96852e-07, resAbs = 3.87508e-14, nIters = 1, maxD = 0.00402084
    Solving
  0 KSP Residual norm 1.35971e-07 
  1 KSP Residual norm < 1.e-11
    Iter = 18, relRef = 1.64974e-09, res = 1.35971e-07, resAbs = 1.84882e-14, nIters = 1, maxD = 0.00402084
    Solving
  0 KSP Residual norm 9.40603e-08 
  1 KSP Residual norm < 1.e-11
    Iter = 19, relRef = 7.89468e-10, res = 9.40603e-08, resAbs = 8.84733e-15, nIters = 1, maxD = 0.00402084
    Solving
  0 KSP Residual norm 6.51575e-08 
  1 KSP Residual norm < 1.e-11
    Iter = 20, relRef = 3.78835e-10, res = 6.51575e-08, resAbs = 4.2455e-15, nIters = 1, maxD = 0.00402084
    Solving
  0 KSP Residual norm 4.51936e-08 
  1 KSP Residual norm < 1.e-11
    Iter = 21, relRef = 1.82253e-10, res = 4.51936e-08, resAbs = 2.04246e-15, nIters = 1, maxD = 0.00402084
    Solving
  0 KSP Residual norm 3.13837e-08 
  1 KSP Residual norm < 1.e-11
    Iter = 22, relRef = 8.7888e-11, res = 3.13837e-08, resAbs = 9.84935e-16, nIters = 1, maxD = 0.00402085
    Converged
    Max DEpsilonPEq is 0.000387571
    17 cells (0.896624% of the cells in this material) are actively yielding

ExecutionTime = 11.47 s  ClockTime = 14 s

Time = 8

Evolving solid solver
    Assembling the matrix
    Solving
  0 KSP Residual norm 0.0033612 
  1 KSP Residual norm < 1.e-11
    Initial residual = 1.12977e-05
    Iter = 0, relRef = 1, res = 0.0033612, resAbs = 1.12977e-05, nIters = 1, maxD = 0.00412622
    Solving
  0 KSP Residual norm 0.000193515 
  1 KSP Residual norm < 1.e-11
    Iter = 1, relRef = 0.00331468, res = 0.000193515, resAbs = 3.74482e-08, nIters = 1, maxD = 0.00413054
    Solving
  0 KSP Residual norm 0.0001185 
  1 KSP Residual norm < 1.e-11
    Iter = 2, relRef = 0.00124292, res = 0.0001185, resAbs = 1.40422e-08, nIters = 1, maxD = 0.00413317
    Solving
  0 KSP Residual norm 7.15429e-05 
  1 KSP Residual norm < 1.e-11
    Iter = 3, relRef = 0.000453048, res = 7.15429e-05, resAbs = 5.11839e-09, nIters = 1, maxD = 0.00413475
    Solving
  0 KSP Residual norm 4.45917e-05 
  1 KSP Residual norm < 1.e-11
    Iter = 4, relRef = 0.000176002, res = 4.45917e-05, resAbs = 1.98842e-09, nIters = 1, maxD = 0.00413574
    Solving
  0 KSP Residual norm 2.83316e-05 
  1 KSP Residual norm < 1.e-11
    Iter = 5, relRef = 7.10483e-05, res = 2.83316e-05, resAbs = 8.02681e-10, nIters = 1, maxD = 0.00413636
    Solving
  0 KSP Residual norm 1.82899e-05 
  1 KSP Residual norm < 1.e-11
    Iter = 6, relRef = 2.96096e-05, res = 1.82899e-05, resAbs = 3.3452e-10, nIters = 1, maxD = 0.00413676
    Solving
  0 KSP Residual norm 1.1958e-05 
  1 KSP Residual norm < 1.e-11
    Iter = 7, relRef = 1.26569e-05, res = 1.1958e-05, resAbs = 1.42993e-10, nIters = 1, maxD = 0.00413703
    Solving
  0 KSP Residual norm 7.89876e-06 
  1 KSP Residual norm < 1.e-11
    Iter = 8, relRef = 5.52241e-06, res = 7.89876e-06, resAbs = 6.23904e-11, nIters = 1, maxD = 0.0041372
    Solving
  0 KSP Residual norm 5.26113e-06 
  1 KSP Residual norm < 1.e-11
    Iter = 9, relRef = 2.45001e-06, res = 5.26113e-06, resAbs = 2.76795e-11, nIters = 1, maxD = 0.00413732
    Solving
  0 KSP Residual norm 3.52828e-06 
  1 KSP Residual norm < 1.e-11
    Iter = 10, relRef = 1.10189e-06, res = 3.52828e-06, resAbs = 1.24488e-11, nIters = 1, maxD = 0.0041374
    Solving
  0 KSP Residual norm 2.37958e-06 
  1 KSP Residual norm < 1.e-11
    Iter = 11, relRef = 5.01199e-07, res = 2.37958e-06, resAbs = 5.66238e-12, nIters = 1, maxD = 0.00413745
    Solving
  0 KSP Residual norm 1.61245e-06 
  1 KSP Residual norm < 1.e-11
    Iter = 12, relRef = 2.30136e-07, res = 1.61245e-06, resAbs = 2.6e-12, nIters = 1, maxD = 0.00413748
    Solving
  0 KSP Residual norm 1.09701e-06 
  1 KSP Residual norm < 1.e-11
    Iter = 13, relRef = 1.06521e-07, res = 1.09701e-06, resAbs = 1.20344e-12, nIters = 1, maxD = 0.00413751
    Solving
  0 KSP Residual norm 7.4891e-07 
  1 KSP Residual norm < 1.e-11
    Iter = 14, relRef = 4.96444e-08, res = 7.4891e-07, resAbs = 5.60866e-13, nIters = 1, maxD = 0.00413752
    Solving
  0 KSP Residual norm 5.12799e-07 
  1 KSP Residual norm < 1.e-11
    Iter = 15, relRef = 2.32758e-08, res = 5.12799e-07, resAbs = 2.62963e-13, nIters = 1, maxD = 0.00413754
    Solving
  0 KSP Residual norm 3.52056e-07 
  1 KSP Residual norm < 1.e-11
    Iter = 16, relRef = 1.09707e-08, res = 3.52056e-07, resAbs = 1.23943e-13, nIters = 1, maxD = 0.00413754
    Solving
  0 KSP Residual norm 2.42271e-07 
  1 KSP Residual norm < 1.e-11
    Iter = 17, relRef = 5.19532e-09, res = 2.42271e-07, resAbs = 5.8695e-14, nIters = 1, maxD = 0.00413755
    Solving
  0 KSP Residual norm 1.67076e-07 
  1 KSP Residual norm < 1.e-11
    Iter = 18, relRef = 2.47082e-09, res = 1.67076e-07, resAbs = 2.79145e-14, nIters = 1, maxD = 0.00413755
    Solving
  0 KSP Residual norm 1.15444e-07 
  1 KSP Residual norm < 1.e-11
    Iter = 19, relRef = 1.17966e-09, res = 1.15444e-07, resAbs = 1.33274e-14, nIters = 1, maxD = 0.00413756
    Solving
  0 KSP Residual norm 7.9911e-08 
  1 KSP Residual norm < 1.e-11
    Iter = 20, relRef = 5.65229e-10, res = 7.9911e-08, resAbs = 6.38577e-15, nIters = 1, maxD = 0.00413756
    Solving
  0 KSP Residual norm 5.54061e-08 
  1 KSP Residual norm < 1.e-11
    Iter = 21, relRef = 2.71723e-10, res = 5.54061e-08, resAbs = 3.06984e-15, nIters = 1, maxD = 0.00413756
    Solving
  0 KSP Residual norm 3.84747e-08 
  1 KSP Residual norm < 1.e-11
    Iter = 22, relRef = 1.31027e-10, res = 3.84747e-08, resAbs = 1.4803e-15, nIters = 1, maxD = 0.00413756
    Solving
  0 KSP Residual norm 2.67557e-08 
  1 KSP Residual norm < 1.e-11
    Iter = 23, relRef = 6.33639e-11, res = 2.67557e-08, resAbs = 7.15865e-16, nIters = 1, maxD = 0.00413756
    Converged
    Max DEpsilonPEq is 0.00043456
    17 cells (0.896624% of the cells in this material) are actively yielding

Max pEpsilonEq = 0.00718643
Max epsilonEq = 0.00728214
Max sigmaEq (von Mises stress) = 2.43e+08
ExecutionTime = 12.46 s  ClockTime = 15 s

Time = 8.2

Evolving solid solver
    Assembling the matrix
    Solving
  0 KSP Residual norm 0.00335891 
  1 KSP Residual norm < 1.e-11
    Initial residual = 1.12823e-05
    Iter = 0, relRef = 1, res = 0.00335891, resAbs = 1.12823e-05, nIters = 1, maxD = 0.00424289
    Solving
  0 KSP Residual norm 0.00019951 
  1 KSP Residual norm < 1.e-11
    Iter = 1, relRef = 0.00352803, res = 0.00019951, resAbs = 3.98042e-08, nIters = 1, maxD = 0.00424734
    Solving
  0 KSP Residual norm 0.000121733 
  1 KSP Residual norm < 1.e-11
    Iter = 2, relRef = 0.00131347, res = 0.000121733, resAbs = 1.48189e-08, nIters = 1, maxD = 0.00425004
    Solving
  0 KSP Residual norm 7.46819e-05 
  1 KSP Residual norm < 1.e-11
    Iter = 3, relRef = 0.00049435, res = 7.46819e-05, resAbs = 5.57739e-09, nIters = 1, maxD = 0.0042517
    Solving
  0 KSP Residual norm 4.85115e-05 
  1 KSP Residual norm < 1.e-11
    Iter = 4, relRef = 0.00020859, res = 4.85115e-05, resAbs = 2.35337e-09, nIters = 1, maxD = 0.00425277
    Solving
  0 KSP Residual norm 3.21146e-05 
  1 KSP Residual norm < 1.e-11
    Iter = 5, relRef = 9.14132e-05, res = 3.21146e-05, resAbs = 1.03135e-09, nIters = 1, maxD = 0.00425348
    Solving
  0 KSP Residual norm 2.1652e-05 
  1 KSP Residual norm < 1.e-11
    Iter = 6, relRef = 4.15525e-05, res = 2.1652e-05, resAbs = 4.68807e-10, nIters = 1, maxD = 0.00425396
    Solving
  0 KSP Residual norm 1.48219e-05 
  1 KSP Residual norm < 1.e-11
    Iter = 7, relRef = 1.94721e-05, res = 1.48219e-05, resAbs = 2.19689e-10, nIters = 1, maxD = 0.00425428
    Solving
  0 KSP Residual norm 1.02738e-05 
  1 KSP Residual norm < 1.e-11
    Iter = 8, relRef = 9.35545e-06, res = 1.02738e-05, resAbs = 1.05551e-10, nIters = 1, maxD = 0.00425451
    Solving
  0 KSP Residual norm 7.19366e-06 
  1 KSP Residual norm < 1.e-11
    Iter = 9, relRef = 4.58673e-06, res = 7.19366e-06, resAbs = 5.17487e-11, nIters = 1, maxD = 0.00425467
    Solving
  0 KSP Residual norm 5.07825e-06 
  1 KSP Residual norm < 1.e-11
    Iter = 10, relRef = 2.28577e-06, res = 5.07825e-06, resAbs = 2.57887e-11, nIters = 1, maxD = 0.00425478
    Solving
  0 KSP Residual norm 3.60855e-06 
  1 KSP Residual norm < 1.e-11
    Iter = 11, relRef = 1.15417e-06, res = 3.60855e-06, resAbs = 1.30217e-11, nIters = 1, maxD = 0.00425486
    Solving
  0 KSP Residual norm 2.5778e-06 
  1 KSP Residual norm < 1.e-11
    Iter = 12, relRef = 5.8898e-07, res = 2.5778e-06, resAbs = 6.64503e-12, nIters = 1, maxD = 0.00425492
    Solving
  0 KSP Residual norm 1.84933e-06 
  1 KSP Residual norm < 1.e-11
    Iter = 13, relRef = 3.03132e-07, res = 1.84933e-06, resAbs = 3.42002e-12, nIters = 1, maxD = 0.00425496
    Solving
  0 KSP Residual norm 1.33129e-06 
  1 KSP Residual norm < 1.e-11
    Iter = 14, relRef = 1.57091e-07, res = 1.33129e-06, resAbs = 1.77235e-12, nIters = 1, maxD = 0.00425499
    Solving
  0 KSP Residual norm 9.61048e-07 
  1 KSP Residual norm < 1.e-11
    Iter = 15, relRef = 8.18641e-08, res = 9.61048e-07, resAbs = 9.23613e-13, nIters = 1, maxD = 0.00425501
    Solving
  0 KSP Residual norm 6.95346e-07 
  1 KSP Residual norm < 1.e-11
    Iter = 16, relRef = 4.28554e-08, res = 6.95346e-07, resAbs = 4.83506e-13, nIters = 1, maxD = 0.00425502
    Solving
  0 KSP Residual norm 5.04039e-07 
  1 KSP Residual norm < 1.e-11
    Iter = 17, relRef = 2.25181e-08, res = 5.04039e-07, resAbs = 2.54055e-13, nIters = 1, maxD = 0.00425503
    Solving
  0 KSP Residual norm 3.65924e-07 
  1 KSP Residual norm < 1.e-11
    Iter = 18, relRef = 1.18682e-08, res = 3.65924e-07, resAbs = 1.339e-13, nIters = 1, maxD = 0.00425504
    Solving
  0 KSP Residual norm 2.65992e-07 
  1 KSP Residual norm < 1.e-11
    Iter = 19, relRef = 6.27104e-09, res = 2.65992e-07, resAbs = 7.07515e-14, nIters = 1, maxD = 0.00425505
    Solving
  0 KSP Residual norm 1.93555e-07 
  1 KSP Residual norm < 1.e-11
    Iter = 20, relRef = 3.32057e-09, res = 1.93555e-07, resAbs = 3.74636e-14, nIters = 1, maxD = 0.00425505
    Solving
  0 KSP Residual norm 1.4097e-07 
  1 KSP Residual norm < 1.e-11
    Iter = 21, relRef = 1.76141e-09, res = 1.4097e-07, resAbs = 1.98727e-14, nIters = 1, maxD = 0.00425505
    Solving
  0 KSP Residual norm 1.02749e-07 
  1 KSP Residual norm < 1.e-11
    Iter = 22, relRef = 9.35752e-10, res = 1.02749e-07, resAbs = 1.05574e-14, nIters = 1, maxD = 0.00425506
    Solving
  0 KSP Residual norm 7.49392e-08 
  1 KSP Residual norm < 1.e-11
    Iter = 23, relRef = 4.97762e-10, res = 7.49392e-08, resAbs = 5.61588e-15, nIters = 1, maxD = 0.00425506
    Solving
  0 KSP Residual norm 5.46865e-08 
  1 KSP Residual norm < 1.e-11
    Iter = 24, relRef = 2.65072e-10, res = 5.46865e-08, resAbs = 2.99061e-15, nIters = 1, maxD = 0.00425506
    Solving
  0 KSP Residual norm 3.99263e-08 
  1 KSP Residual norm < 1.e-11
    Iter = 25, relRef = 1.41293e-10, res = 3.99263e-08, resAbs = 1.59411e-15, nIters = 1, maxD = 0.00425506
    Solving
  0 KSP Residual norm 2.91622e-08 
  1 KSP Residual norm < 1.e-11
    Iter = 26, relRef = 7.53779e-11, res = 2.91622e-08, resAbs = 8.50434e-16, nIters = 1, maxD = 0.00425506
    Converged
    Max DEpsilonPEq is 0.000455509
    19 cells (1.00211% of the cells in this material) are actively yielding

ExecutionTime = 13.62 s  ClockTime = 17 s

Time = 8.4

Evolving solid solver
    Assembling the matrix
    Solving
  0 KSP Residual norm 0.0033742 
  1 KSP Residual norm < 1.e-11
    Initial residual = 1.13852e-05
    Iter = 0, relRef = 1, res = 0.0033742, resAbs = 1.13852e-05, nIters = 1, maxD = 0.00436075
    Solving
  0 KSP Residual norm 0.000219706 
  1 KSP Residual norm < 1.e-11
    Iter = 1, relRef = 0.00423979, res = 0.000219706, resAbs = 4.82709e-08, nIters = 1, maxD = 0.00436566
    Solving
  0 KSP Residual norm 0.000139322 
  1 KSP Residual norm < 1.e-11
    Iter = 2, relRef = 0.00170489, res = 0.000139322, resAbs = 1.94105e-08, nIters = 1, maxD = 0.00436876
    Solving
  0 KSP Residual norm 8.69434e-05 
  1 KSP Residual norm < 1.e-11
    Iter = 3, relRef = 0.000663946, res = 8.69434e-05, resAbs = 7.55916e-09, nIters = 1, maxD = 0.00437069
    Solving
  0 KSP Residual norm 5.62015e-05 
  1 KSP Residual norm < 1.e-11
    Iter = 4, relRef = 0.000277432, res = 5.62015e-05, resAbs = 3.15861e-09, nIters = 1, maxD = 0.00437194
    Solving
  0 KSP Residual norm 3.7003e-05 
  1 KSP Residual norm < 1.e-11
    Iter = 5, relRef = 0.000120263, res = 3.7003e-05, resAbs = 1.36922e-09, nIters = 1, maxD = 0.00437276
    Solving
  0 KSP Residual norm 2.47773e-05 
  1 KSP Residual norm < 1.e-11
    Iter = 6, relRef = 5.39223e-05, res = 2.47773e-05, resAbs = 6.13916e-10, nIters = 1, maxD = 0.00437331
    Solving
  0 KSP Residual norm 1.68081e-05 
  1 KSP Residual norm < 1.e-11
    Iter = 7, relRef = 2.48139e-05, res = 1.68081e-05, resAbs = 2.82512e-10, nIters = 1, maxD = 0.00437368
    Solving
  0 KSP Residual norm 1.153e-05 
  1 KSP Residual norm < 1.e-11
    Iter = 8, relRef = 1.16766e-05, res = 1.153e-05, resAbs = 1.3294e-10, nIters = 1, maxD = 0.00437393
    Solving
  0 KSP Residual norm 8.02544e-06 
  1 KSP Residual norm < 1.e-11
    Iter = 9, relRef = 5.65714e-06, res = 8.02544e-06, resAbs = 6.44077e-11, nIters = 1, maxD = 0.00437411
    Solving
  0 KSP Residual norm 5.63873e-06 
  1 KSP Residual norm < 1.e-11
    Iter = 10, relRef = 2.79269e-06, res = 5.63873e-06, resAbs = 3.17953e-11, nIters = 1, maxD = 0.00437423
    Solving
  0 KSP Residual norm 3.99692e-06 
  1 KSP Residual norm < 1.e-11
    Iter = 11, relRef = 1.40317e-06, res = 3.99692e-06, resAbs = 1.59754e-11, nIters = 1, maxD = 0.00437432
    Solving
  0 KSP Residual norm 2.85459e-06 
  1 KSP Residual norm < 1.e-11
    Iter = 12, relRef = 7.15727e-07, res = 2.85459e-06, resAbs = 8.14869e-12, nIters = 1, maxD = 0.00437438
    Solving
  0 KSP Residual norm 2.05179e-06 
  1 KSP Residual norm < 1.e-11
    Iter = 13, relRef = 3.69764e-07, res = 2.05179e-06, resAbs = 4.20984e-12, nIters = 1, maxD = 0.00437443
    Solving
  0 KSP Residual norm 1.48267e-06 
  1 KSP Residual norm < 1.e-11
    Iter = 14, relRef = 1.93086e-07, res = 1.48267e-06, resAbs = 2.19832e-12, nIters = 1, maxD = 0.00437446
    Solving
  0 KSP Residual norm 1.07621e-06 
  1 KSP Residual norm < 1.e-11
    Iter = 15, relRef = 1.0173e-07, res = 1.07621e-06, resAbs = 1.15822e-12, nIters = 1, maxD = 0.00437448
    Solving
  0 KSP Residual norm 7.84066e-07 
  1 KSP Residual norm < 1.e-11
    Iter = 16, relRef = 5.39963e-08, res = 7.84066e-07, resAbs = 6.14759e-13, nIters = 1, maxD = 0.0043745
    Solving
  0 KSP Residual norm 5.72978e-07 
  1 KSP Residual norm < 1.e-11
    Iter = 17, relRef = 2.8836e-08, res = 5.72978e-07, resAbs = 3.28304e-13, nIters = 1, maxD = 0.00437451
    Solving
  0 KSP Residual norm 4.25817e-07 
  1 KSP Residual norm < 1.e-11
    Iter = 18, relRef = 1.5926e-08, res = 4.25817e-07, resAbs = 1.8132e-13, nIters = 1, maxD = 0.00437452
    Solving
  0 KSP Residual norm 3.1879e-07 
  1 KSP Residual norm < 1.e-11
    Iter = 19, relRef = 8.92622e-09, res = 3.1879e-07, resAbs = 1.01627e-13, nIters = 1, maxD = 0.00437453
    Solving
  0 KSP Residual norm 2.36693e-07 
  1 KSP Residual norm < 1.e-11
    Iter = 20, relRef = 4.92074e-09, res = 2.36693e-07, resAbs = 5.60236e-14, nIters = 1, maxD = 0.00437453
    Solving
  0 KSP Residual norm 1.75314e-07 
  1 KSP Residual norm < 1.e-11
    Iter = 21, relRef = 2.69957e-09, res = 1.75314e-07, resAbs = 3.07351e-14, nIters = 1, maxD = 0.00437454
    Solving
  0 KSP Residual norm 1.29691e-07 
  1 KSP Residual norm < 1.e-11
    Iter = 22, relRef = 1.47733e-09, res = 1.29691e-07, resAbs = 1.68197e-14, nIters = 1, maxD = 0.00437454
    Solving
  0 KSP Residual norm 9.58755e-08 
  1 KSP Residual norm < 1.e-11
    Iter = 23, relRef = 8.07374e-10, res = 9.58755e-08, resAbs = 9.19212e-15, nIters = 1, maxD = 0.00437454
    Solving
  0 KSP Residual norm 7.08516e-08 
  1 KSP Residual norm < 1.e-11
    Iter = 24, relRef = 4.40919e-10, res = 7.08516e-08, resAbs = 5.01995e-15, nIters = 1, maxD = 0.00437454
    Solving
  0 KSP Residual norm 5.23494e-08 
  1 KSP Residual norm < 1.e-11
    Iter = 25, relRef = 2.40703e-10, res = 5.23494e-08, resAbs = 2.74046e-15, nIters = 1, maxD = 0.00437454
    Solving
  0 KSP Residual norm 3.86757e-08 
  1 KSP Residual norm < 1.e-11
    Iter = 26, relRef = 1.31382e-10, res = 3.86757e-08, resAbs = 1.49581e-15, nIters = 1, maxD = 0.00437455
    Solving
  0 KSP Residual norm 2.85731e-08 
  1 KSP Residual norm < 1.e-11
    Iter = 27, relRef = 7.17091e-11, res = 2.85731e-08, resAbs = 8.16423e-16, nIters = 1, maxD = 0.00437455
    Converged
    Max DEpsilonPEq is 0.000497431
    20 cells (1.05485% of the cells in this material) are actively yielding

ExecutionTime = 14.77 s  ClockTime = 18 s

Time = 8.6

Evolving solid solver
    Assembling the matrix
    Solving
  0 KSP Residual norm 0.00338207 
  1 KSP Residual norm < 1.e-11
    Initial residual = 1.14384e-05
    Iter = 0, relRef = 1, res = 0.00338207, resAbs = 1.14384e-05, nIters = 1, maxD = 0.00448042
    Solving
  0 KSP Residual norm 0.000245248 
  1 KSP Residual norm < 1.e-11
    Iter = 1, relRef = 0.00525831, res = 0.000245248, resAbs = 6.01466e-08, nIters = 1, maxD = 0.00448592
    Solving
  0 KSP Residual norm 0.000162372 
  1 KSP Residual norm < 1.e-11
    Iter = 2, relRef = 0.00230492, res = 0.000162372, resAbs = 2.63646e-08, nIters = 1, maxD = 0.00448954
    Solving
  0 KSP Residual norm 0.000104598 
  1 KSP Residual norm < 1.e-11
    Iter = 3, relRef = 0.000956491, res = 0.000104598, resAbs = 1.09407e-08, nIters = 1, maxD = 0.00449188
    Solving
  0 KSP Residual norm 6.83454e-05 
  1 KSP Residual norm < 1.e-11
    Iter = 4, relRef = 0.00040837, res = 6.83454e-05, resAbs = 4.67109e-09, nIters = 1, maxD = 0.0044934
    Solving
  0 KSP Residual norm 4.50075e-05 
  1 KSP Residual norm < 1.e-11
    Iter = 5, relRef = 0.000177094, res = 4.50075e-05, resAbs = 2.02567e-09, nIters = 1, maxD = 0.0044944
    Solving
  0 KSP Residual norm 2.98572e-05 
  1 KSP Residual norm < 1.e-11
    Iter = 6, relRef = 7.7935e-05, res = 2.98572e-05, resAbs = 8.91451e-10, nIters = 1, maxD = 0.00449506
    Solving
  0 KSP Residual norm 1.99447e-05 
  1 KSP Residual norm < 1.e-11
    Iter = 7, relRef = 3.47767e-05, res = 1.99447e-05, resAbs = 3.97789e-10, nIters = 1, maxD = 0.00449551
    Solving
  0 KSP Residual norm 1.34151e-05 
  1 KSP Residual norm < 1.e-11
    Iter = 8, relRef = 1.57334e-05, res = 1.34151e-05, resAbs = 1.79965e-10, nIters = 1, maxD = 0.0044958
    Solving
  0 KSP Residual norm 9.08644e-06 
  1 KSP Residual norm < 1.e-11
    Iter = 9, relRef = 7.2181e-06, res = 9.08644e-06, resAbs = 8.25634e-11, nIters = 1, maxD = 0.004496
    Solving
  0 KSP Residual norm 6.1987e-06 
  1 KSP Residual norm < 1.e-11
    Iter = 10, relRef = 3.35921e-06, res = 6.1987e-06, resAbs = 3.84239e-11, nIters = 1, maxD = 0.00449614
    Solving
  0 KSP Residual norm 4.25987e-06 
  1 KSP Residual norm < 1.e-11
    Iter = 11, relRef = 1.58646e-06, res = 4.25987e-06, resAbs = 1.81465e-11, nIters = 1, maxD = 0.00449623
    Solving
  0 KSP Residual norm 2.94952e-06 
  1 KSP Residual norm < 1.e-11
    Iter = 12, relRef = 7.60569e-07, res = 2.94952e-06, resAbs = 8.69968e-12, nIters = 1, maxD = 0.0044963
    Solving
  0 KSP Residual norm 2.05784e-06 
  1 KSP Residual norm < 1.e-11
    Iter = 13, relRef = 3.70219e-07, res = 2.05784e-06, resAbs = 4.23471e-12, nIters = 1, maxD = 0.00449634
    Solving
  0 KSP Residual norm 1.44673e-06 
  1 KSP Residual norm < 1.e-11
    Iter = 14, relRef = 1.82983e-07, res = 1.44673e-06, resAbs = 2.09303e-12, nIters = 1, maxD = 0.00449638
    Solving
  0 KSP Residual norm 1.02483e-06 
  1 KSP Residual norm < 1.e-11
    Iter = 15, relRef = 9.18198e-08, res = 1.02483e-06, resAbs = 1.05027e-12, nIters = 1, maxD = 0.0044964
    Solving
  0 KSP Residual norm 7.3136e-07 
  1 KSP Residual norm < 1.e-11
    Iter = 16, relRef = 4.67626e-08, res = 7.3136e-07, resAbs = 5.34888e-13, nIters = 1, maxD = 0.00449641
    Solving
  0 KSP Residual norm 5.2568e-07 
  1 KSP Residual norm < 1.e-11
    Iter = 17, relRef = 2.4159e-08, res = 5.2568e-07, resAbs = 2.7634e-13, nIters = 1, maxD = 0.00449642
    Solving
  0 KSP Residual norm 3.80432e-07 
  1 KSP Residual norm < 1.e-11
    Iter = 18, relRef = 1.26529e-08, res = 3.80432e-07, resAbs = 1.44728e-13, nIters = 1, maxD = 0.00449643
    Solving
  0 KSP Residual norm 2.77093e-07 
  1 KSP Residual norm < 1.e-11
    Iter = 19, relRef = 6.71251e-09, res = 2.77093e-07, resAbs = 7.67803e-14, nIters = 1, maxD = 0.00449644
    Solving
  0 KSP Residual norm 2.03036e-07 
  1 KSP Residual norm < 1.e-11
    Iter = 20, relRef = 3.60397e-09, res = 2.03036e-07, resAbs = 4.12236e-14, nIters = 1, maxD = 0.00449644
    Solving
  0 KSP Residual norm 1.49594e-07 
  1 KSP Residual norm < 1.e-11
    Iter = 21, relRef = 1.95643e-09, res = 1.49594e-07, resAbs = 2.23784e-14, nIters = 1, maxD = 0.00449645
    Solving
  0 KSP Residual norm 1.10774e-07 
  1 KSP Residual norm < 1.e-11
    Iter = 22, relRef = 1.07278e-09, res = 1.10774e-07, resAbs = 1.22709e-14, nIters = 1, maxD = 0.00449645
    Solving
  0 KSP Residual norm 8.2401e-08 
  1 KSP Residual norm < 1.e-11
    Iter = 23, relRef = 5.93609e-10, res = 8.2401e-08, resAbs = 6.78993e-15, nIters = 1, maxD = 0.00449645
    Solving
  0 KSP Residual norm 6.1545e-08 
  1 KSP Residual norm < 1.e-11
    Iter = 24, relRef = 3.31147e-10, res = 6.1545e-08, resAbs = 3.78779e-15, nIters = 1, maxD = 0.00449645
    Solving
  0 KSP Residual norm 4.61343e-08 
  1 KSP Residual norm < 1.e-11
    Iter = 25, relRef = 1.86073e-10, res = 4.61343e-08, resAbs = 2.12838e-15, nIters = 1, maxD = 0.00449645
    Solving
  0 KSP Residual norm 3.46932e-08 
  1 KSP Residual norm < 1.e-11
    Iter = 26, relRef = 1.05227e-10, res = 3.46932e-08, resAbs = 1.20362e-15, nIters = 1, maxD = 0.00449645
    Solving
  0 KSP Residual norm 2.6163e-08 
  1 KSP Residual norm < 1.e-11
    Iter = 27, relRef = 5.98426e-11, res = 2.6163e-08, resAbs = 6.84503e-16, nIters = 1, maxD = 0.00449645
    Converged
    Max DEpsilonPEq is 0.000480502
    24 cells (1.26582% of the cells in this material) are actively yielding

ExecutionTime = 15.99 s  ClockTime = 19 s

Time = 8.8

Evolving solid solver
    Assembling the matrix
    Solving
  0 KSP Residual norm 0.00341385 
  1 KSP Residual norm < 1.e-11
    Initial residual = 1.16544e-05
    Iter = 0, relRef = 1, res = 0.00341385, resAbs = 1.16544e-05, nIters = 1, maxD = 0.00460308
    Solving
  0 KSP Residual norm 0.000253471 
  1 KSP Residual norm < 1.e-11
    Iter = 1, relRef = 0.00551275, res = 0.000253471, resAbs = 6.42476e-08, nIters = 1, maxD = 0.00460877
    Solving
  0 KSP Residual norm 0.000163993 
  1 KSP Residual norm < 1.e-11
[...]
Max sigmaEq (von Mises stress) = 1.69005e+08
ExecutionTime = 32.97 s  ClockTime = 38 s

Time = 14.2

Evolving solid solver
    Assembling the matrix
    Solving
  0 KSP Residual norm 0.00316834 
  1 KSP Residual norm < 1.e-11
    Initial residual = 1.00384e-05
    Iter = 0, relRef = 1, res = 0.00316834, resAbs = 1.00384e-05, nIters = 1, maxD = 0.00333701
    Solving
  0 KSP Residual norm < 1.e-11
    Iter = 1, relRef = 0, res = 0, resAbs = 0, nIters = 0, maxD = 0.00333701
    Converged
    Max DEpsilonPEq is 0
    0 cells (0% of the cells in this material) are actively yielding

ExecutionTime = 33.08 s  ClockTime = 39 s

Time = 14.4

Evolving solid solver
    Assembling the matrix
    Solving
  0 KSP Residual norm 0.00316834 
  1 KSP Residual norm < 1.e-11
    Initial residual = 1.00384e-05
    Iter = 0, relRef = 1, res = 0.00316834, resAbs = 1.00384e-05, nIters = 1, maxD = 0.00323616
    Solving
  0 KSP Residual norm < 1.e-11
    Iter = 1, relRef = 0, res = 0, resAbs = 0, nIters = 0, maxD = 0.00323616
    Converged
    Max DEpsilonPEq is 0
    0 cells (0% of the cells in this material) are actively yielding

ExecutionTime = 33.18 s  ClockTime = 39 s

Time = 14.6

Evolving solid solver
    Assembling the matrix
    Solving
  0 KSP Residual norm 0.00316834 
  1 KSP Residual norm < 1.e-11
    Initial residual = 1.00384e-05
    Iter = 0, relRef = 1, res = 0.00316834, resAbs = 1.00384e-05, nIters = 1, maxD = 0.00313532
    Solving
  0 KSP Residual norm < 1.e-11
    Iter = 1, relRef = 0, res = 0, resAbs = 0, nIters = 0, maxD = 0.00313532
    Converged
    Max DEpsilonPEq is 0
    0 cells (0% of the cells in this material) are actively yielding

ExecutionTime = 33.29 s  ClockTime = 39 s

Time = 14.8

Evolving solid solver
    Assembling the matrix
    Solving
  0 KSP Residual norm 0.00316834 
  1 KSP Residual norm < 1.e-11
    Initial residual = 1.00384e-05
    Iter = 0, relRef = 1, res = 0.00316834, resAbs = 1.00384e-05, nIters = 1, maxD = 0.00303447
    Solving
  0 KSP Residual norm < 1.e-11
    Iter = 1, relRef = 0, res = 0, resAbs = 0, nIters = 0, maxD = 0.00303447
    Converged
    Max DEpsilonPEq is 0
    0 cells (0% of the cells in this material) are actively yielding

ExecutionTime = 33.38 s  ClockTime = 39 s

Time = 15

Evolving solid solver
    Assembling the matrix
    Solving
  0 KSP Residual norm 0.00316834 
  1 KSP Residual norm < 1.e-11
    Initial residual = 1.00384e-05
    Iter = 0, relRef = 1, res = 0.00316834, resAbs = 1.00384e-05, nIters = 1, maxD = 0.00293363
    Solving
  0 KSP Residual norm < 1.e-11
    Iter = 1, relRef = 0, res = 0, resAbs = 0, nIters = 0, maxD = 0.00293363
    Converged
    Max DEpsilonPEq is 0
    0 cells (0% of the cells in this material) are actively yielding

Max pEpsilonEq = 0.00974439
Max epsilonEq = 0.00999886
Max sigmaEq (von Mises stress) = 1.50541e+08
ExecutionTime = 33.54 s  ClockTime = 39 s

Time = 15.2

Evolving solid solver
    Assembling the matrix
    Solving
  0 KSP Residual norm 0.00316834 
  1 KSP Residual norm < 1.e-11
    Initial residual = 1.00384e-05
    Iter = 0, relRef = 1, res = 0.00316834, resAbs = 1.00384e-05, nIters = 1, maxD = 0.00283278
    Solving
  0 KSP Residual norm < 1.e-11
    Iter = 1, relRef = 0, res = 0, resAbs = 0, nIters = 0, maxD = 0.00283278
    Converged
    Max DEpsilonPEq is 0
    0 cells (0% of the cells in this material) are actively yielding

ExecutionTime = 33.63 s  ClockTime = 39 s

Time = 15.4

Evolving solid solver
    Assembling the matrix
    Solving
  0 KSP Residual norm 0.00316834 
  1 KSP Residual norm < 1.e-11
    Initial residual = 1.00384e-05
    Iter = 0, relRef = 1, res = 0.00316834, resAbs = 1.00384e-05, nIters = 1, maxD = 0.00273194
    Solving
  0 KSP Residual norm < 1.e-11
    Iter = 1, relRef = 0, res = 0, resAbs = 0, nIters = 0, maxD = 0.00273194
    Converged
    Max DEpsilonPEq is 0
    0 cells (0% of the cells in this material) are actively yielding

ExecutionTime = 33.77 s  ClockTime = 39 s

Time = 15.6

Evolving solid solver
    Assembling the matrix
    Solving
  0 KSP Residual norm 0.00316834 
  1 KSP Residual norm < 1.e-11
    Initial residual = 1.00384e-05
    Iter = 0, relRef = 1, res = 0.00316834, resAbs = 1.00384e-05, nIters = 1, maxD = 0.0026311
    Solving
  0 KSP Residual norm < 1.e-11
    Iter = 1, relRef = 0, res = 0, resAbs = 0, nIters = 0, maxD = 0.0026311
    Converged
    Max DEpsilonPEq is 0
    0 cells (0% of the cells in this material) are actively yielding

ExecutionTime = 33.9 s  ClockTime = 40 s

Time = 15.8

Evolving solid solver
    Assembling the matrix
    Solving
  0 KSP Residual norm 0.00316834 
  1 KSP Residual norm < 1.e-11
    Initial residual = 1.00384e-05
    Iter = 0, relRef = 1, res = 0.00316834, resAbs = 1.00384e-05, nIters = 1, maxD = 0.00253025
    Solving
  0 KSP Residual norm < 1.e-11
    Iter = 1, relRef = 0, res = 0, resAbs = 0, nIters = 0, maxD = 0.00253025
    Converged
    Max DEpsilonPEq is 0
    0 cells (0% of the cells in this material) are actively yielding

ExecutionTime = 34.01 s  ClockTime = 40 s

Time = 16

Evolving solid solver
    Assembling the matrix
    Solving
  0 KSP Residual norm 0.00316834 
  1 KSP Residual norm < 1.e-11
    Initial residual = 1.00384e-05
    Iter = 0, relRef = 1, res = 0.00316834, resAbs = 1.00384e-05, nIters = 1, maxD = 0.00242941
    Solving
  0 KSP Residual norm < 1.e-11
    Iter = 1, relRef = 0, res = 0, resAbs = 0, nIters = 0, maxD = 0.00242941
    Converged
    Max DEpsilonPEq is 0
    0 cells (0% of the cells in this material) are actively yielding

Max pEpsilonEq = 0.00917492
Max epsilonEq = 0.00940329
Max sigmaEq (von Mises stress) = 1.32104e+08
ExecutionTime = 34.18 s  ClockTime = 40 s

Time = 16.2

Evolving solid solver
    Assembling the matrix
    Solving
  0 KSP Residual norm 0.00316834 
  1 KSP Residual norm < 1.e-11
    Initial residual = 1.00384e-05
    Iter = 0, relRef = 1, res = 0.00316834, resAbs = 1.00384e-05, nIters = 1, maxD = 0.00232856
    Solving
  0 KSP Residual norm < 1.e-11
    Iter = 1, relRef = 0, res = 0, resAbs = 0, nIters = 0, maxD = 0.00232856
    Converged
    Max DEpsilonPEq is 0
    0 cells (0% of the cells in this material) are actively yielding

ExecutionTime = 34.32 s  ClockTime = 40 s

Time = 16.4

Evolving solid solver
    Assembling the matrix
    Solving
  0 KSP Residual norm 0.00316834 
  1 KSP Residual norm < 1.e-11
    Initial residual = 1.00384e-05
    Iter = 0, relRef = 1, res = 0.00316834, resAbs = 1.00384e-05, nIters = 1, maxD = 0.00222772
    Solving
  0 KSP Residual norm < 1.e-11
    Iter = 1, relRef = 0, res = 0, resAbs = 0, nIters = 0, maxD = 0.00222772
    Converged
    Max DEpsilonPEq is 0
    0 cells (0% of the cells in this material) are actively yielding

ExecutionTime = 34.44 s  ClockTime = 40 s

Time = 16.6

Evolving solid solver
    Assembling the matrix
    Solving
  0 KSP Residual norm 0.00316834 
  1 KSP Residual norm < 1.e-11
    Initial residual = 1.00384e-05
    Iter = 0, relRef = 1, res = 0.00316834, resAbs = 1.00384e-05, nIters = 1, maxD = 0.00212687
    Solving
  0 KSP Residual norm < 1.e-11
    Iter = 1, relRef = 0, res = 0, resAbs = 0, nIters = 0, maxD = 0.00212687
    Converged
    Max DEpsilonPEq is 0
    0 cells (0% of the cells in this material) are actively yielding

ExecutionTime = 34.58 s  ClockTime = 40 s

Time = 16.8

Evolving solid solver
    Assembling the matrix
    Solving
  0 KSP Residual norm 0.00316834 
  1 KSP Residual norm < 1.e-11
    Initial residual = 1.00384e-05
    Iter = 0, relRef = 1, res = 0.00316834, resAbs = 1.00384e-05, nIters = 1, maxD = 0.00202603
    Solving
  0 KSP Residual norm < 1.e-11
    Iter = 1, relRef = 0, res = 0, resAbs = 0, nIters = 0, maxD = 0.00202603
    Converged
    Max DEpsilonPEq is 0
    0 cells (0% of the cells in this material) are actively yielding

ExecutionTime = 34.72 s  ClockTime = 40 s

Time = 17

Evolving solid solver
    Assembling the matrix
    Solving
  0 KSP Residual norm 0.00316834 
  1 KSP Residual norm < 1.e-11
    Initial residual = 1.00384e-05
    Iter = 0, relRef = 1, res = 0.00316834, resAbs = 1.00384e-05, nIters = 1, maxD = 0.00192518
    Solving
  0 KSP Residual norm < 1.e-11
    Iter = 1, relRef = 0, res = 0, resAbs = 0, nIters = 0, maxD = 0.00192518
    Converged
    Max DEpsilonPEq is 0
    0 cells (0% of the cells in this material) are actively yielding

Max pEpsilonEq = 0.00860786
Max epsilonEq = 0.00880991
Max sigmaEq (von Mises stress) = 1.21752e+08
ExecutionTime = 34.88 s  ClockTime = 41 s

Time = 17.2

Evolving solid solver
    Assembling the matrix
    Solving
  0 KSP Residual norm 0.00316834 
  1 KSP Residual norm < 1.e-11
    Initial residual = 1.00384e-05
    Iter = 0, relRef = 1, res = 0.00316834, resAbs = 1.00384e-05, nIters = 1, maxD = 0.00182434
    Solving
  0 KSP Residual norm < 1.e-11
    Iter = 1, relRef = 0, res = 0, resAbs = 0, nIters = 0, maxD = 0.00182434
    Converged
    Max DEpsilonPEq is 0
    0 cells (0% of the cells in this material) are actively yielding

ExecutionTime = 35.02 s  ClockTime = 41 s

Time = 17.4

Evolving solid solver
    Assembling the matrix
    Solving
  0 KSP Residual norm 0.00316834 
  1 KSP Residual norm < 1.e-11
    Initial residual = 1.00384e-05
    Iter = 0, relRef = 1, res = 0.00316834, resAbs = 1.00384e-05, nIters = 1, maxD = 0.00172349
    Solving
  0 KSP Residual norm < 1.e-11
    Iter = 1, relRef = 0, res = 0, resAbs = 0, nIters = 0, maxD = 0.00172349
    Converged
    Max DEpsilonPEq is 0
    0 cells (0% of the cells in this material) are actively yielding

ExecutionTime = 35.13 s  ClockTime = 41 s

Time = 17.6

Evolving solid solver
    Assembling the matrix
    Solving
  0 KSP Residual norm 0.00316834 
  1 KSP Residual norm < 1.e-11
    Initial residual = 1.00384e-05
    Iter = 0, relRef = 1, res = 0.00316834, resAbs = 1.00384e-05, nIters = 1, maxD = 0.00162265
    Solving
  0 KSP Residual norm < 1.e-11
    Iter = 1, relRef = 0, res = 0, resAbs = 0, nIters = 0, maxD = 0.00162265
    Converged
    Max DEpsilonPEq is 0
    0 cells (0% of the cells in this material) are actively yielding

ExecutionTime = 35.27 s  ClockTime = 41 s

Time = 17.8

Evolving solid solver
    Assembling the matrix
    Solving
  0 KSP Residual norm 0.00316834 
  1 KSP Residual norm < 1.e-11
    Initial residual = 1.00384e-05
    Iter = 0, relRef = 1, res = 0.00316834, resAbs = 1.00384e-05, nIters = 1, maxD = 0.0015218
    Solving
  0 KSP Residual norm < 1.e-11
    Iter = 1, relRef = 0, res = 0, resAbs = 0, nIters = 0, maxD = 0.0015218
    Converged
    Max DEpsilonPEq is 0
    0 cells (0% of the cells in this material) are actively yielding

ExecutionTime = 35.38 s  ClockTime = 41 s

Time = 18

Evolving solid solver
    Assembling the matrix
    Solving
  0 KSP Residual norm 0.00316834 
  1 KSP Residual norm < 1.e-11
    Initial residual = 1.00384e-05
    Iter = 0, relRef = 1, res = 0.00316834, resAbs = 1.00384e-05, nIters = 1, maxD = 0.00142096
    Solving
  0 KSP Residual norm < 1.e-11
    Iter = 1, relRef = 0, res = 0, resAbs = 0, nIters = 0, maxD = 0.00142096
    Converged
    Max DEpsilonPEq is 0
    0 cells (0% of the cells in this material) are actively yielding

Max pEpsilonEq = 0.00804373
Max epsilonEq = 0.00821921
Max sigmaEq (von Mises stress) = 1.67413e+08
ExecutionTime = 35.57 s  ClockTime = 41 s

Time = 18.2

Evolving solid solver
    Assembling the matrix
    Solving
  0 KSP Residual norm 0.00316834 
  1 KSP Residual norm < 1.e-11
    Initial residual = 1.00384e-05
    Iter = 0, relRef = 1, res = 0.00316834, resAbs = 1.00384e-05, nIters = 1, maxD = 0.00132012
    Solving
  0 KSP Residual norm < 1.e-11
    Iter = 1, relRef = 0, res = 0, resAbs = 0, nIters = 0, maxD = 0.00132012
    Converged
    Max DEpsilonPEq is 0
    0 cells (0% of the cells in this material) are actively yielding

ExecutionTime = 35.66 s  ClockTime = 42 s

Time = 18.4

Evolving solid solver
    Assembling the matrix
    Solving
  0 KSP Residual norm 0.00316834 
  1 KSP Residual norm < 1.e-11
    Initial residual = 1.00384e-05
    Iter = 0, relRef = 1, res = 0.00316834, resAbs = 1.00384e-05, nIters = 1, maxD = 0.00121927
    Solving
  0 KSP Residual norm < 1.e-11
    Iter = 1, relRef = 0, res = 0, resAbs = 0, nIters = 0, maxD = 0.00121927
    Converged
    Max DEpsilonPEq is 0
    0 cells (0% of the cells in this material) are actively yielding

ExecutionTime = 35.79 s  ClockTime = 42 s

Time = 18.6

Evolving solid solver
    Assembling the matrix
    Solving
  0 KSP Residual norm 0.00316834 
  1 KSP Residual norm < 1.e-11
    Initial residual = 1.00384e-05
    Iter = 0, relRef = 1, res = 0.00316834, resAbs = 1.00384e-05, nIters = 1, maxD = 0.00111843
    Solving
  0 KSP Residual norm < 1.e-11
    Iter = 1, relRef = 0, res = 0, resAbs = 0, nIters = 0, maxD = 0.00111843
    Converged
    Max DEpsilonPEq is 0
    0 cells (0% of the cells in this material) are actively yielding

ExecutionTime = 35.94 s  ClockTime = 42 s

Time = 18.8

Evolving solid solver
    Assembling the matrix
    Solving
  0 KSP Residual norm 0.00316834 
  1 KSP Residual norm < 1.e-11
    Initial residual = 1.00384e-05
    Iter = 0, relRef = 1, res = 0.00316834, resAbs = 1.00384e-05, nIters = 1, maxD = 0.00101758
    Solving
  0 KSP Residual norm < 1.e-11
    Iter = 1, relRef = 0, res = 0, resAbs = 0, nIters = 0, maxD = 0.00101758
    Converged
    Max DEpsilonPEq is 0
    0 cells (0% of the cells in this material) are actively yielding

ExecutionTime = 36.05 s  ClockTime = 42 s

Time = 19

Evolving solid solver
    Assembling the matrix
    Solving
  0 KSP Residual norm 0.00316834 
  1 KSP Residual norm < 1.e-11
    Initial residual = 1.00384e-05
    Iter = 0, relRef = 1, res = 0.00316834, resAbs = 1.00384e-05, nIters = 1, maxD = 0.000916737
    Solving
  0 KSP Residual norm < 1.e-11
    Iter = 1, relRef = 0, res = 0, resAbs = 0, nIters = 0, maxD = 0.000916737
    Converged
    Max DEpsilonPEq is 0
    0 cells (0% of the cells in this material) are actively yielding

Max pEpsilonEq = 0.00748319
Max epsilonEq = 0.0076318
Max sigmaEq (von Mises stress) = 2.14735e+08
ExecutionTime = 36.21 s  ClockTime = 42 s

Time = 19.2

Evolving solid solver
    Assembling the matrix
    Solving
  0 KSP Residual norm 0.00316834 
  1 KSP Residual norm < 1.e-11
    Initial residual = 1.00384e-05
    Iter = 0, relRef = 1, res = 0.00316834, resAbs = 1.00384e-05, nIters = 1, maxD = 0.000830282
    Solving
  0 KSP Residual norm < 1.e-11
    Iter = 1, relRef = 0, res = 0, resAbs = 0, nIters = 0, maxD = 0.000830282
    Converged
    Max DEpsilonPEq is 0
    0 cells (0% of the cells in this material) are actively yielding

ExecutionTime = 36.35 s  ClockTime = 42 s

Time = 19.4

Evolving solid solver
    Assembling the matrix
    Solving
  0 KSP Residual norm 0.00316834 
  1 KSP Residual norm < 1.e-11
    Initial residual = 1.00384e-05
    Iter = 0, relRef = 1, res = 0.00316834, resAbs = 1.00384e-05, nIters = 1, maxD = 0.000790597
    Solving
  0 KSP Residual norm < 1.e-11
    Iter = 1, relRef = 0, res = 0, resAbs = 0, nIters = 0, maxD = 0.000790597
    Converged
    Max DEpsilonPEq is 0
    0 cells (0% of the cells in this material) are actively yielding

ExecutionTime = 36.44 s  ClockTime = 42 s

Time = 19.6

Evolving solid solver
    Assembling the matrix
    Solving
  0 KSP Residual norm 0.00316834 
  1 KSP Residual norm < 1.e-11
    Initial residual = 1.00384e-05
    Iter = 0, relRef = 1, res = 0.00316834, resAbs = 1.00384e-05, nIters = 1, maxD = 0.000751348
    Solving
  0 KSP Residual norm 1.03456e-06 
  1 KSP Residual norm < 1.e-11
    Iter = 1, relRef = 1.06622e-07, res = 1.03456e-06, resAbs = 1.07032e-12, nIters = 1, maxD = 0.000751297
    Solving
  0 KSP Residual norm 3.77091e-07 
  1 KSP Residual norm < 1.e-11
    Iter = 2, relRef = 1.41654e-08, res = 3.77091e-07, resAbs = 1.42197e-13, nIters = 1, maxD = 0.000751279
    Solving
  0 KSP Residual norm 1.37481e-07 
  1 KSP Residual norm < 1.e-11
    Iter = 3, relRef = 1.88287e-09, res = 1.37481e-07, resAbs = 1.8901e-14, nIters = 1, maxD = 0.000751272
    Solving
  0 KSP Residual norm 5.01277e-08 
  1 KSP Residual norm < 1.e-11
    Iter = 4, relRef = 2.50318e-10, res = 5.01277e-08, resAbs = 2.51279e-15, nIters = 1, maxD = 0.000751269
    Solving
  0 KSP Residual norm 1.8278e-08 
  1 KSP Residual norm < 1.e-11
    Iter = 5, relRef = 3.32806e-11, res = 1.8278e-08, resAbs = 3.34084e-16, nIters = 1, maxD = 0.000751268
    Converged
    Max DEpsilonPEq is 1.01876e-05
    1 cells (0.0527426% of the cells in this material) are actively yielding

ExecutionTime = 36.68 s  ClockTime = 43 s

Time = 19.8

Evolving solid solver
    Assembling the matrix
    Solving
  0 KSP Residual norm 0.00317118 
  1 KSP Residual norm < 1.e-11
    Initial residual = 1.00564e-05
    Iter = 0, relRef = 1, res = 0.00317118, resAbs = 1.00564e-05, nIters = 1, maxD = 0.000712378
    Solving
  0 KSP Residual norm 1.84875e-05 
  1 KSP Residual norm < 1.e-11
    Iter = 1, relRef = 3.39873e-05, res = 1.84875e-05, resAbs = 3.41789e-10, nIters = 1, maxD = 0.000711469
    Solving
  0 KSP Residual norm 5.87108e-06 
  1 KSP Residual norm < 1.e-11
    Iter = 2, relRef = 3.42765e-06, res = 5.87108e-06, resAbs = 3.44696e-11, nIters = 1, maxD = 0.00071118
    Solving
  0 KSP Residual norm 1.87182e-06 
  1 KSP Residual norm < 1.e-11
    Iter = 3, relRef = 3.48409e-07, res = 1.87182e-06, resAbs = 3.50372e-12, nIters = 1, maxD = 0.000711087
    Solving
  0 KSP Residual norm 5.97318e-07 
  1 KSP Residual norm < 1.e-11
    Iter = 4, relRef = 3.5479e-08, res = 5.97318e-07, resAbs = 3.56789e-13, nIters = 1, maxD = 0.000711058
    Solving
  0 KSP Residual norm 1.90667e-07 
  1 KSP Residual norm < 1.e-11
    Iter = 5, relRef = 3.61503e-09, res = 1.90667e-07, resAbs = 3.6354e-14, nIters = 1, maxD = 0.000711048
    Solving
  0 KSP Residual norm 6.08679e-08 
  1 KSP Residual norm < 1.e-11
    Iter = 6, relRef = 3.68414e-10, res = 6.08679e-08, resAbs = 3.7049e-15, nIters = 1, maxD = 0.000711045
    Solving
  0 KSP Residual norm 1.94318e-08 
  1 KSP Residual norm < 1.e-11
    Iter = 7, relRef = 3.75479e-11, res = 1.94318e-08, resAbs = 3.77595e-16, nIters = 1, maxD = 0.000711044
    Converged
    Max DEpsilonPEq is 0.00018883
    1 cells (0.0527426% of the cells in this material) are actively yielding

ExecutionTime = 37 s  ClockTime = 43 s

Time = 20

Evolving solid solver
    Assembling the matrix
    Solving
  0 KSP Residual norm 0.00317126 
  1 KSP Residual norm < 1.e-11
    Initial residual = 1.00569e-05
    Iter = 0, relRef = 1, res = 0.00317126, resAbs = 1.00569e-05, nIters = 1, maxD = 0.000676253
    Solving
  0 KSP Residual norm 2.65367e-05 
  1 KSP Residual norm < 1.e-11
    Iter = 1, relRef = 7.00214e-05, res = 2.65367e-05, resAbs = 7.04197e-10, nIters = 1, maxD = 0.000675139
    Solving
  0 KSP Residual norm 6.42723e-06 
  1 KSP Residual norm < 1.e-11
    Iter = 2, relRef = 4.10757e-06, res = 6.42723e-06, resAbs = 4.13093e-11, nIters = 1, maxD = 0.00067487
    Solving
  0 KSP Residual norm 1.54626e-06 
  1 KSP Residual norm < 1.e-11
    Iter = 3, relRef = 2.37739e-07, res = 1.54626e-06, resAbs = 2.39091e-12, nIters = 1, maxD = 0.000674805
    Solving
  0 KSP Residual norm 3.57769e-07 
  1 KSP Residual norm < 1.e-11
    Iter = 4, relRef = 1.27275e-08, res = 3.57769e-07, resAbs = 1.27998e-13, nIters = 1, maxD = 0.000674791
    Solving
  0 KSP Residual norm 7.81753e-08 
  1 KSP Residual norm < 1.e-11
    Iter = 5, relRef = 6.07682e-10, res = 7.81753e-08, resAbs = 6.11138e-15, nIters = 1, maxD = 0.000674788
    Solving
  0 KSP Residual norm 1.81095e-08 
  1 KSP Residual norm < 1.e-11
    Iter = 6, relRef = 3.261e-11, res = 1.81095e-08, resAbs = 3.27954e-16, nIters = 1, maxD = 0.000674787
    Converged
    Max DEpsilonPEq is 0.000183655
    2 cells (0.105485% of the cells in this material) are actively yielding

Max pEpsilonEq = 0.00687059
Max epsilonEq = 0.00701848
Max sigmaEq (von Mises stress) = 2.43e+08
ExecutionTime = 37.37 s  ClockTime = 44 s

The momentum equation converged in all time-steps


End

