/*---------------------------------------------------------------------------*\
| =========                 |                                                 |
| \\      /  F ield         | OpenFOAM: The Open Source CFD Toolbox           |
|  \\    /   O peration     | Version:  v2012                                 |
|   \\  /    A nd           | Website:  www.openfoam.com                      |
|    \\/     M anipulation  |                                                 |
\*---------------------------------------------------------------------------*/
Build  : _7bdb509494-20201222 OPENFOAM=2012
Arch   : "LSB;label=32;scalar=64"
Exec   : solids4Foam
Date   : Jul 31 2023
Time   : 14:37:09
Host   : DESKTOP-19FOE2K
PID    : 5751
I/O    : uncollated
Case   : /home/federico/OpenFOAM/federico-v2012/run/solid-benchmarks-main/linearElasticity/cantilever2/vertexCentredLinearGeometry/structuredTriangles/vertex.5
nProcs : 1
trapFpe: Floating point exception trapping enabled (FOAM_SIGFPE).
fileModificationChecking : Monitoring run-time modified files using timeStampMaster (fileModificationSkew 5, maxFileModificationPolls 20)
allowSystemOperations : Allowing user-supplied system call operations

// * * * * * * * * * * * * * * * * * * * * * * * * * * * * * * * * * * * * * //
Create time

--> FOAM Warning : 
    From static Foam::IOstreamOption::compressionType Foam::IOstreamOption::compressionEnum(const Foam::word&, Foam::IOstreamOption::compressionType)
    in file db/IOstreams/IOstreams/IOstreamOption.C at line 115
    Unknown compression specifier 'uncompressed', using compression off
/*---------------------------------------------------------------------------*\
|    For further information on the solids4Foam toolbox implementations,      |
|    please see the following publications:                                   |
|                                                                             |
|    P. Cardiff, A Karac, P. De Jaeger, H. Jasak, J. Nagy, A. Ivankovic,      |
|    Z. Tukovic: An open-source finite volume toolbox for solid mechanics and |
|    fluid-solid interaction simulations. arXiv:1808.10736v2, 2018, available |
|    at https://arxiv.org/abs/1808.10736.                                     |
|                                                                             |
|    Z. Tukovic, A. Karac, P. Cardiff, H. Jasak, A. Ivankovic: OpenFOAM       |
|    finite volume solver for fluid-solid interaction.  Transactions of       |
|    Famena, 42 (3), pp. 1-31, 2018, 10.21278/TOF.42301.                      |
\*---------------------------------------------------------------------------*/

Selecting physicsModel solidModel
Selecting solidModel vertexCentredLinearGeometry
Selecting dynamicFvMesh staticFvMesh
    under-relaxation method: fixed
Creating dualMesh
    featureAngle: 30
    doNotPreserveFaceZones: 0
    concaveMultiCells: 0
Constructing dualFaceToCell:
    internal faces not set: 0
    boundary faces not set: 1

Creating the mechanicalModel
Selecting mechanical law linearElastic
Creating the dualMechanicalModel
Selecting mechanical law linearElastic
fixedDofScale: 7190147314.97
Creating cantileverAnalytical function object
Time = 1

Evolving solid solver
    Solving
  0 KSP Residual norm 1.05456e-05 
  1 KSP Residual norm 3.27726e-06 
  2 KSP Residual norm 1.92025e-06 
  3 KSP Residual norm 1.54128e-06 
  4 KSP Residual norm 1.497e-06 
  5 KSP Residual norm 1.52666e-06 
  6 KSP Residual norm 1.59406e-06 
  7 KSP Residual norm 1.63835e-06 
  8 KSP Residual norm 1.74464e-06 
  9 KSP Residual norm 1.84569e-06 
 10 KSP Residual norm 1.99802e-06 
 11 KSP Residual norm 2.11596e-06 
 12 KSP Residual norm 2.21835e-06 
 13 KSP Residual norm 2.29275e-06 
 14 KSP Residual norm 2.33923e-06 
 15 KSP Residual norm 2.3987e-06 
 16 KSP Residual norm 2.42711e-06 
 17 KSP Residual norm 2.437e-06 
 18 KSP Residual norm 2.44702e-06 
 19 KSP Residual norm 2.45958e-06 
 20 KSP Residual norm 2.49195e-06 
 21 KSP Residual norm 2.5584e-06 
 22 KSP Residual norm 2.62408e-06 
 23 KSP Residual norm 2.68226e-06 
 24 KSP Residual norm 2.72698e-06 
 25 KSP Residual norm 2.75755e-06 
 26 KSP Residual norm 2.78538e-06 
 27 KSP Residual norm 2.80934e-06 
 28 KSP Residual norm 2.81513e-06 
 29 KSP Residual norm 2.81528e-06 
 30 KSP Residual norm 2.82009e-06 
 31 KSP Residual norm 2.8474e-06 
 32 KSP Residual norm 2.90486e-06 
 33 KSP Residual norm 2.95802e-06 
 34 KSP Residual norm 3.00187e-06 
 35 KSP Residual norm 3.06236e-06 
 36 KSP Residual norm 3.08269e-06 
 37 KSP Residual norm 3.08312e-06 
 38 KSP Residual norm 3.05277e-06 
 39 KSP Residual norm 2.97779e-06 
 40 KSP Residual norm 2.9279e-06 
 41 KSP Residual norm 3.00496e-06 
 42 KSP Residual norm 3.34019e-06 
 43 KSP Residual norm 3.89251e-06 
 44 KSP Residual norm 4.09705e-06 
 45 KSP Residual norm 3.58245e-06 
 46 KSP Residual norm 2.94405e-06 
 47 KSP Residual norm 2.47126e-06 
 48 KSP Residual norm 2.12942e-06 
 49 KSP Residual norm 2.03724e-06 
 50 KSP Residual norm 2.25176e-06 
 51 KSP Residual norm 2.7197e-06 
 52 KSP Residual norm 3.29189e-06 
 53 KSP Residual norm 3.99573e-06 
 54 KSP Residual norm 4.81653e-06 
 55 KSP Residual norm 5.27633e-06 
 56 KSP Residual norm 5.37091e-06 
 57 KSP Residual norm 5.17934e-06 
 58 KSP Residual norm 4.77991e-06 
 59 KSP Residual norm 4.27968e-06 
 60 KSP Residual norm 3.68524e-06 
 61 KSP Residual norm 3.24462e-06 
 62 KSP Residual norm 3.03145e-06 
 63 KSP Residual norm 3.02932e-06 
 64 KSP Residual norm 3.18919e-06 
 65 KSP Residual norm 3.38129e-06 
 66 KSP Residual norm 3.56295e-06 
 67 KSP Residual norm 3.78241e-06 
 68 KSP Residual norm 3.93144e-06 
 69 KSP Residual norm 3.97417e-06 
 70 KSP Residual norm 3.87479e-06 
 71 KSP Residual norm 3.63002e-06 
 72 KSP Residual norm 3.3896e-06 
 73 KSP Residual norm 3.20433e-06 
 74 KSP Residual norm 3.10903e-06 
 75 KSP Residual norm 3.06705e-06 
 76 KSP Residual norm 3.09539e-06 
 77 KSP Residual norm 3.27183e-06 
 78 KSP Residual norm 3.44639e-06 
 79 KSP Residual norm 3.75255e-06 
 80 KSP Residual norm 3.87372e-06 
 81 KSP Residual norm 3.75664e-06 
 82 KSP Residual norm 3.3597e-06 
 83 KSP Residual norm 2.97741e-06 
 84 KSP Residual norm 2.92623e-06 
 85 KSP Residual norm 3.18239e-06 
 86 KSP Residual norm 4.00327e-06 
 87 KSP Residual norm 4.72181e-06 
 88 KSP Residual norm 4.66471e-06 
 89 KSP Residual norm 3.82743e-06 
 90 KSP Residual norm 3.13588e-06 
 91 KSP Residual norm 3.23109e-06 
 92 KSP Residual norm 3.55716e-06 
 93 KSP Residual norm 3.67341e-06 
 94 KSP Residual norm 3.86522e-06 
 95 KSP Residual norm 3.82514e-06 
 96 KSP Residual norm 3.17082e-06 
 97 KSP Residual norm 2.48603e-06 
 98 KSP Residual norm 2.02153e-06 
 99 KSP Residual norm 2.07305e-06 
100 KSP Residual norm 2.74527e-06 
101 KSP Residual norm 3.89981e-06 
102 KSP Residual norm 4.7149e-06 
103 KSP Residual norm 5.39283e-06 
104 KSP Residual norm 6.59317e-06 
105 KSP Residual norm 7.7512e-06 
106 KSP Residual norm 8.18182e-06 
107 KSP Residual norm 7.57698e-06 
108 KSP Residual norm 6.24743e-06 
109 KSP Residual norm 4.98216e-06 
110 KSP Residual norm 3.98202e-06 
111 KSP Residual norm 3.23927e-06 
112 KSP Residual norm 2.65598e-06 
113 KSP Residual norm 2.31213e-06 
114 KSP Residual norm 2.24722e-06 
115 KSP Residual norm 2.21198e-06 
116 KSP Residual norm 2.19777e-06 
117 KSP Residual norm 2.19057e-06 
118 KSP Residual norm 2.12394e-06 
119 KSP Residual norm 2.19667e-06 
120 KSP Residual norm 2.2036e-06 
121 KSP Residual norm 2.10814e-06 
122 KSP Residual norm 2.14048e-06 
123 KSP Residual norm 2.12761e-06 
124 KSP Residual norm 2.25906e-06 
125 KSP Residual norm 2.75777e-06 
126 KSP Residual norm 3.42015e-06 
127 KSP Residual norm 4.23285e-06 
128 KSP Residual norm 5.04414e-06 
129 KSP Residual norm 5.39511e-06 
130 KSP Residual norm 5.50157e-06 
131 KSP Residual norm 5.56216e-06 
132 KSP Residual norm 5.87447e-06 
133 KSP Residual norm 6.45184e-06 
134 KSP Residual norm 6.99991e-06 
135 KSP Residual norm 7.75068e-06 
136 KSP Residual norm 8.57468e-06 
137 KSP Residual norm 9.34261e-06 
138 KSP Residual norm 1.04383e-05 
139 KSP Residual norm 1.15028e-05 
140 KSP Residual norm 1.19512e-05 
141 KSP Residual norm 1.16165e-05 
142 KSP Residual norm 1.0598e-05 
143 KSP Residual norm 9.84957e-06 
144 KSP Residual norm 9.01623e-06 
145 KSP Residual norm 8.79479e-06 
146 KSP Residual norm 7.81536e-06 
147 KSP Residual norm 6.81783e-06 
148 KSP Residual norm 5.87642e-06 
149 KSP Residual norm 5.56496e-06 
150 KSP Residual norm 5.7784e-06 
151 KSP Residual norm 5.83e-06 
152 KSP Residual norm 5.66205e-06 
153 KSP Residual norm 5.91329e-06 
154 KSP Residual norm 6.19378e-06 
155 KSP Residual norm 5.85447e-06 
156 KSP Residual norm 4.93359e-06 
157 KSP Residual norm 3.98006e-06 
158 KSP Residual norm 3.35626e-06 
159 KSP Residual norm 3.01152e-06 
160 KSP Residual norm 2.725e-06 
161 KSP Residual norm 2.34892e-06 
162 KSP Residual norm 2.03245e-06 
163 KSP Residual norm 1.93988e-06 
164 KSP Residual norm 1.97545e-06 
165 KSP Residual norm 1.90158e-06 
166 KSP Residual norm 1.67272e-06 
167 KSP Residual norm 1.42871e-06 
168 KSP Residual norm 1.29029e-06 
169 KSP Residual norm 1.17222e-06 
170 KSP Residual norm 1.20583e-06 
171 KSP Residual norm 1.29368e-06 
172 KSP Residual norm 1.46594e-06 
173 KSP Residual norm 1.88728e-06 
174 KSP Residual norm 2.58516e-06 
175 KSP Residual norm 2.99364e-06 
176 KSP Residual norm 2.9677e-06 
177 KSP Residual norm 2.56027e-06 
178 KSP Residual norm 2.06375e-06 
179 KSP Residual norm 1.77131e-06 
180 KSP Residual norm 1.73437e-06 
181 KSP Residual norm 1.63642e-06 
182 KSP Residual norm 1.30587e-06 
183 KSP Residual norm 1.11537e-06 
184 KSP Residual norm 1.16405e-06 
185 KSP Residual norm 1.26226e-06 
186 KSP Residual norm 1.33194e-06 
187 KSP Residual norm 1.54599e-06 
188 KSP Residual norm 1.96403e-06 
189 KSP Residual norm 2.37813e-06 
190 KSP Residual norm 2.59465e-06 
191 KSP Residual norm 3.04877e-06 
192 KSP Residual norm 3.84143e-06 
193 KSP Residual norm 4.75613e-06 
194 KSP Residual norm 5.58418e-06 
195 KSP Residual norm 6.2685e-06 
196 KSP Residual norm 6.80338e-06 
197 KSP Residual norm 7.3319e-06 
198 KSP Residual norm 7.50173e-06 
199 KSP Residual norm 7.48437e-06 
200 KSP Residual norm 8.11523e-06 
201 KSP Residual norm 8.36003e-06 
202 KSP Residual norm 7.63386e-06 
203 KSP Residual norm 7.24399e-06 
204 KSP Residual norm 7.81445e-06 
205 KSP Residual norm 8.84806e-06 
206 KSP Residual norm 1.01714e-05 
207 KSP Residual norm 1.18162e-05 
208 KSP Residual norm 1.29546e-05 
209 KSP Residual norm 1.30446e-05 
210 KSP Residual norm 1.37235e-05 
211 KSP Residual norm 1.49649e-05 
212 KSP Residual norm 1.42013e-05 
213 KSP Residual norm 1.22515e-05 
214 KSP Residual norm 1.13841e-05 
215 KSP Residual norm 1.15537e-05 
216 KSP Residual norm 1.23349e-05 
217 KSP Residual norm 1.38604e-05 
218 KSP Residual norm 1.55495e-05 
219 KSP Residual norm 1.56007e-05 
220 KSP Residual norm 1.59891e-05 
221 KSP Residual norm 1.67506e-05 
222 KSP Residual norm 1.64909e-05 
223 KSP Residual norm 1.55279e-05 
224 KSP Residual norm 1.38016e-05 
225 KSP Residual norm 1.19059e-05 
226 KSP Residual norm 1.02505e-05 
227 KSP Residual norm 8.69566e-06 
228 KSP Residual norm 8.02778e-06 
229 KSP Residual norm 7.76996e-06 
230 KSP Residual norm 7.73021e-06 
231 KSP Residual norm 7.75227e-06 
232 KSP Residual norm 8.51375e-06 
233 KSP Residual norm 9.55269e-06 
234 KSP Residual norm 1.05047e-05 
235 KSP Residual norm 1.13818e-05 
236 KSP Residual norm 1.21931e-05 
237 KSP Residual norm 1.29967e-05 
238 KSP Residual norm 1.34332e-05 
239 KSP Residual norm 1.32144e-05 
240 KSP Residual norm 1.26391e-05 
241 KSP Residual norm 1.21988e-05 
242 KSP Residual norm 1.238e-05 
243 KSP Residual norm 1.29233e-05 
244 KSP Residual norm 1.30512e-05 
245 KSP Residual norm 1.33662e-05 
246 KSP Residual norm 1.43439e-05 
247 KSP Residual norm 1.51777e-05 
248 KSP Residual norm 1.47004e-05 
249 KSP Residual norm 1.21017e-05 
250 KSP Residual norm 9.21251e-06 
251 KSP Residual norm 7.68351e-06 
252 KSP Residual norm 7.94187e-06 
253 KSP Residual norm 9.14478e-06 
254 KSP Residual norm 1.13279e-05 
255 KSP Residual norm 1.40599e-05 
256 KSP Residual norm 1.70202e-05 
257 KSP Residual norm 1.91217e-05 
258 KSP Residual norm 1.83325e-05 
259 KSP Residual norm 1.57758e-05 
260 KSP Residual norm 1.37622e-05 
261 KSP Residual norm 1.29749e-05 
262 KSP Residual norm 1.36146e-05 
263 KSP Residual norm 1.58136e-05 
264 KSP Residual norm 1.79053e-05 
265 KSP Residual norm 1.87237e-05 
266 KSP Residual norm 1.75725e-05 
267 KSP Residual norm 1.52922e-05 
268 KSP Residual norm 1.37751e-05 
269 KSP Residual norm 1.44685e-05 
270 KSP Residual norm 1.65698e-05 
271 KSP Residual norm 1.85233e-05 
272 KSP Residual norm 1.9849e-05 
273 KSP Residual norm 2.04853e-05 
274 KSP Residual norm 1.99968e-05 
275 KSP Residual norm 1.82258e-05 
276 KSP Residual norm 1.57299e-05 
277 KSP Residual norm 1.44159e-05 
278 KSP Residual norm 1.37684e-05 
279 KSP Residual norm 1.3191e-05 
280 KSP Residual norm 1.22982e-05 
281 KSP Residual norm 1.1848e-05 
282 KSP Residual norm 1.22588e-05 
283 KSP Residual norm 1.29705e-05 
284 KSP Residual norm 1.30388e-05 
285 KSP Residual norm 1.32747e-05 
286 KSP Residual norm 1.36373e-05 
287 KSP Residual norm 1.43003e-05 
288 KSP Residual norm 1.49756e-05 
289 KSP Residual norm 1.43249e-05 
290 KSP Residual norm 1.43626e-05 
291 KSP Residual norm 1.59973e-05 
292 KSP Residual norm 1.8436e-05 
293 KSP Residual norm 2.01073e-05 
294 KSP Residual norm 2.1681e-05 
295 KSP Residual norm 2.30146e-05 
296 KSP Residual norm 2.30799e-05 
297 KSP Residual norm 2.07191e-05 
298 KSP Residual norm 1.72139e-05 
299 KSP Residual norm 1.38631e-05 
300 KSP Residual norm 1.07739e-05 
301 KSP Residual norm 8.80453e-06 
302 KSP Residual norm 7.48304e-06 
303 KSP Residual norm 6.98971e-06 
304 KSP Residual norm 7.03895e-06 
305 KSP Residual norm 7.20623e-06 
306 KSP Residual norm 7.53405e-06 
307 KSP Residual norm 7.55858e-06 
308 KSP Residual norm 7.6e-06 
309 KSP Residual norm 7.77117e-06 
310 KSP Residual norm 7.74888e-06 
311 KSP Residual norm 7.80295e-06 
312 KSP Residual norm 7.92445e-06 
313 KSP Residual norm 7.40395e-06 
314 KSP Residual norm 6.53329e-06 
315 KSP Residual norm 5.83871e-06 
316 KSP Residual norm 5.35103e-06 
317 KSP Residual norm 4.94564e-06 
318 KSP Residual norm 4.64444e-06 
319 KSP Residual norm 4.5731e-06 
320 KSP Residual norm 4.76926e-06 
321 KSP Residual norm 5.42592e-06 
322 KSP Residual norm 6.48813e-06 
323 KSP Residual norm 7.57135e-06 
324 KSP Residual norm 8.41676e-06 
325 KSP Residual norm 9.01117e-06 
326 KSP Residual norm 9.429e-06 
327 KSP Residual norm 8.95465e-06 
328 KSP Residual norm 7.7595e-06 
329 KSP Residual norm 6.74197e-06 
330 KSP Residual norm 6.25548e-06 
331 KSP Residual norm 6.12792e-06 
332 KSP Residual norm 6.61371e-06 
333 KSP Residual norm 7.7533e-06 
334 KSP Residual norm 8.82072e-06 
335 KSP Residual norm 9.74647e-06 
336 KSP Residual norm 9.88022e-06 
337 KSP Residual norm 8.52961e-06 
338 KSP Residual norm 7.02596e-06 
339 KSP Residual norm 6.03488e-06 
340 KSP Residual norm 4.91677e-06 
341 KSP Residual norm 3.65473e-06 
342 KSP Residual norm 2.9018e-06 
343 KSP Residual norm 2.50367e-06 
344 KSP Residual norm 2.1544e-06 
345 KSP Residual norm 1.799e-06 
346 KSP Residual norm 1.51996e-06 
347 KSP Residual norm 1.30992e-06 
348 KSP Residual norm 1.17988e-06 
349 KSP Residual norm 1.10586e-06 
350 KSP Residual norm 9.7542e-07 
351 KSP Residual norm 8.34371e-07 
352 KSP Residual norm 7.52485e-07 
353 KSP Residual norm 7.17054e-07 
354 KSP Residual norm 6.99783e-07 
355 KSP Residual norm 6.86193e-07 
356 KSP Residual norm 7.15616e-07 
357 KSP Residual norm 7.91481e-07 
358 KSP Residual norm 9.33314e-07 
359 KSP Residual norm 1.06261e-06 
360 KSP Residual norm 1.11353e-06 
361 KSP Residual norm 1.09596e-06 
362 KSP Residual norm 9.94835e-07 
363 KSP Residual norm 9.01782e-07 
364 KSP Residual norm 8.89263e-07 
365 KSP Residual norm 8.68012e-07 
366 KSP Residual norm 8.11171e-07 
367 KSP Residual norm 7.39894e-07 
368 KSP Residual norm 6.54112e-07 
369 KSP Residual norm 5.78223e-07 
370 KSP Residual norm 5.17119e-07 
371 KSP Residual norm 4.78272e-07 
372 KSP Residual norm 4.42928e-07 
373 KSP Residual norm 4.19706e-07 
374 KSP Residual norm 4.16225e-07 
375 KSP Residual norm 4.35659e-07 
376 KSP Residual norm 4.63145e-07 
377 KSP Residual norm 4.72105e-07 
378 KSP Residual norm 4.88571e-07 
379 KSP Residual norm 5.41365e-07 
380 KSP Residual norm 6.34798e-07 
381 KSP Residual norm 7.1041e-07 
382 KSP Residual norm 7.06587e-07 
383 KSP Residual norm 6.79346e-07 
384 KSP Residual norm 6.84012e-07 
385 KSP Residual norm 7.2546e-07 
386 KSP Residual norm 7.91193e-07 
387 KSP Residual norm 8.4884e-07 
388 KSP Residual norm 8.58016e-07 
389 KSP Residual norm 7.82511e-07 
390 KSP Residual norm 7.07827e-07 
391 KSP Residual norm 6.92398e-07 
392 KSP Residual norm 7.29128e-07 
393 KSP Residual norm 8.09252e-07 
394 KSP Residual norm 9.38053e-07 
395 KSP Residual norm 1.02953e-06 
396 KSP Residual norm 1.02154e-06 
397 KSP Residual norm 9.30904e-07 
398 KSP Residual norm 8.45665e-07 
399 KSP Residual norm 8.46177e-07 
400 KSP Residual norm 9.24503e-07 
401 KSP Residual norm 9.70564e-07 
402 KSP Residual norm 1.03545e-06 
403 KSP Residual norm 1.07692e-06 
404 KSP Residual norm 1.08828e-06 
405 KSP Residual norm 1.08448e-06 
406 KSP Residual norm 1.13231e-06 
407 KSP Residual norm 1.18731e-06 
408 KSP Residual norm 1.20041e-06 
409 KSP Residual norm 1.15573e-06 
410 KSP Residual norm 9.85312e-07 
411 KSP Residual norm 7.38821e-07 
412 KSP Residual norm 5.62105e-07 
413 KSP Residual norm 4.45108e-07 
414 KSP Residual norm 3.83623e-07 
415 KSP Residual norm 3.58927e-07 
416 KSP Residual norm 3.47785e-07 
417 KSP Residual norm 3.45711e-07 
418 KSP Residual norm 3.48241e-07 
419 KSP Residual norm 3.39488e-07 
420 KSP Residual norm 3.13903e-07 
421 KSP Residual norm 2.83656e-07 
422 KSP Residual norm 2.68767e-07 
423 KSP Residual norm 2.69007e-07 
424 KSP Residual norm 2.59834e-07 
425 KSP Residual norm 2.25842e-07 
426 KSP Residual norm 1.79594e-07 
427 KSP Residual norm 1.3986e-07 
428 KSP Residual norm 1.12207e-07 
429 KSP Residual norm 9.83313e-08 
430 KSP Residual norm 9.43361e-08 
431 KSP Residual norm 9.78712e-08 
432 KSP Residual norm 1.04187e-07 
433 KSP Residual norm 1.08697e-07 
434 KSP Residual norm 1.11762e-07 
435 KSP Residual norm 1.16042e-07 
436 KSP Residual norm 1.17619e-07 
437 KSP Residual norm 1.11423e-07 
438 KSP Residual norm 9.93816e-08 
439 KSP Residual norm 8.75646e-08 
440 KSP Residual norm 7.64203e-08 
441 KSP Residual norm 6.45664e-08 
442 KSP Residual norm 5.86809e-08 
443 KSP Residual norm 6.10006e-08 
444 KSP Residual norm 6.84132e-08 
445 KSP Residual norm 7.80657e-08 
446 KSP Residual norm 8.47376e-08 
447 KSP Residual norm 8.20675e-08 
448 KSP Residual norm 7.60271e-08 
449 KSP Residual norm 6.99214e-08 
450 KSP Residual norm 6.58805e-08 
451 KSP Residual norm 6.41239e-08 
452 KSP Residual norm 6.48883e-08 
453 KSP Residual norm 6.87878e-08 
454 KSP Residual norm 6.67166e-08 
455 KSP Residual norm 6.27203e-08 
456 KSP Residual norm 6.16614e-08 
457 KSP Residual norm 6.43572e-08 
458 KSP Residual norm 6.75811e-08 
459 KSP Residual norm 6.73558e-08 
460 KSP Residual norm 6.12251e-08 
461 KSP Residual norm 5.5232e-08 
462 KSP Residual norm 5.12163e-08 
463 KSP Residual norm 4.82045e-08 
464 KSP Residual norm 4.6757e-08 
465 KSP Residual norm 4.68053e-08 
466 KSP Residual norm 4.99653e-08 
467 KSP Residual norm 5.66637e-08 
468 KSP Residual norm 6.61044e-08 
469 KSP Residual norm 7.35516e-08 
470 KSP Residual norm 7.28288e-08 
471 KSP Residual norm 6.89241e-08 
472 KSP Residual norm 7.15298e-08 
473 KSP Residual norm 8.15021e-08 
474 KSP Residual norm 9.17803e-08 
475 KSP Residual norm 9.89309e-08 
476 KSP Residual norm 9.99268e-08 
477 KSP Residual norm 9.64363e-08 
478 KSP Residual norm 9.59225e-08 
479 KSP Residual norm 1.00204e-07 
480 KSP Residual norm 1.02456e-07 
481 KSP Residual norm 9.4438e-08 
482 KSP Residual norm 8.01399e-08 
483 KSP Residual norm 7.1062e-08 
484 KSP Residual norm 6.82754e-08 
485 KSP Residual norm 6.51056e-08 
486 KSP Residual norm 5.98291e-08 
487 KSP Residual norm 5.68815e-08 
488 KSP Residual norm 5.9378e-08 
489 KSP Residual norm 6.81393e-08 
490 KSP Residual norm 8.04805e-08 
491 KSP Residual norm 9.08128e-08 
492 KSP Residual norm 9.35696e-08 
493 KSP Residual norm 9.23381e-08 
494 KSP Residual norm 8.85099e-08 
495 KSP Residual norm 8.17607e-08 
496 KSP Residual norm 6.96738e-08 
497 KSP Residual norm 5.60875e-08 
498 KSP Residual norm 4.76075e-08 
499 KSP Residual norm 4.49954e-08 
500 KSP Residual norm 4.62328e-08 
501 KSP Residual norm 4.82422e-08 
502 KSP Residual norm 4.87664e-08 
503 KSP Residual norm 4.70771e-08 
504 KSP Residual norm 4.70726e-08 
505 KSP Residual norm 5.0208e-08 
506 KSP Residual norm 5.97695e-08 
507 KSP Residual norm 7.8418e-08 
508 KSP Residual norm 1.00488e-07 
509 KSP Residual norm 1.16294e-07 
510 KSP Residual norm 1.22943e-07 
511 KSP Residual norm 1.34243e-07 
512 KSP Residual norm 1.55813e-07 
513 KSP Residual norm 1.70423e-07 
514 KSP Residual norm 1.67831e-07 
515 KSP Residual norm 1.56097e-07 
516 KSP Residual norm 1.43775e-07 
517 KSP Residual norm 1.32422e-07 
518 KSP Residual norm 1.21753e-07 
519 KSP Residual norm 1.15309e-07 
520 KSP Residual norm 1.13592e-07 
521 KSP Residual norm 1.07847e-07 
522 KSP Residual norm 1.01196e-07 
523 KSP Residual norm 1.01345e-07 
524 KSP Residual norm 1.04346e-07 
525 KSP Residual norm 1.0457e-07 
526 KSP Residual norm 1.00459e-07 
527 KSP Residual norm 9.69897e-08 
528 KSP Residual norm 9.41469e-08 
529 KSP Residual norm 9.24386e-08 
530 KSP Residual norm 9.15079e-08 
531 KSP Residual norm 8.98528e-08 
532 KSP Residual norm 8.55188e-08 
533 KSP Residual norm 8.47428e-08 
534 KSP Residual norm 9.15163e-08 
535 KSP Residual norm 1.02442e-07 
536 KSP Residual norm 1.19535e-07 
537 KSP Residual norm 1.42982e-07 
538 KSP Residual norm 1.68634e-07 
539 KSP Residual norm 1.80483e-07 
540 KSP Residual norm 1.80573e-07 
541 KSP Residual norm 1.75513e-07 
542 KSP Residual norm 1.70293e-07 
543 KSP Residual norm 1.71462e-07 
544 KSP Residual norm 1.79651e-07 
545 KSP Residual norm 1.87981e-07 
546 KSP Residual norm 2.03515e-07 
547 KSP Residual norm 2.21301e-07 
548 KSP Residual norm 2.30504e-07 
549 KSP Residual norm 2.33194e-07 
550 KSP Residual norm 2.30769e-07 
551 KSP Residual norm 2.14434e-07 
552 KSP Residual norm 1.87684e-07 
553 KSP Residual norm 1.58899e-07 
554 KSP Residual norm 1.40564e-07 
555 KSP Residual norm 1.3001e-07 
556 KSP Residual norm 1.20892e-07 
557 KSP Residual norm 1.10666e-07 
558 KSP Residual norm 1.04625e-07 
559 KSP Residual norm 1.01798e-07 
560 KSP Residual norm 9.93423e-08 
561 KSP Residual norm 9.48934e-08 
562 KSP Residual norm 8.80573e-08 
563 KSP Residual norm 7.89304e-08 
564 KSP Residual norm 6.97181e-08 
565 KSP Residual norm 6.39633e-08 
566 KSP Residual norm 6.29313e-08 
567 KSP Residual norm 6.49825e-08 
568 KSP Residual norm 6.74494e-08 
569 KSP Residual norm 6.80887e-08 
570 KSP Residual norm 6.6909e-08 
571 KSP Residual norm 6.56611e-08 
572 KSP Residual norm 6.70566e-08 
573 KSP Residual norm 7.10049e-08 
574 KSP Residual norm 7.61647e-08 
575 KSP Residual norm 7.76615e-08 
576 KSP Residual norm 7.67203e-08 
577 KSP Residual norm 7.56162e-08 
578 KSP Residual norm 7.46034e-08 
579 KSP Residual norm 7.42731e-08 
580 KSP Residual norm 7.44729e-08 
581 KSP Residual norm 7.23986e-08 
582 KSP Residual norm 6.92873e-08 
583 KSP Residual norm 6.49605e-08 
584 KSP Residual norm 5.95006e-08 
585 KSP Residual norm 5.2609e-08 
586 KSP Residual norm 4.6801e-08 
587 KSP Residual norm 4.16602e-08 
588 KSP Residual norm 3.83141e-08 
589 KSP Residual norm 3.73152e-08 
590 KSP Residual norm 3.59588e-08 
591 KSP Residual norm 3.22235e-08 
592 KSP Residual norm 2.83982e-08 
593 KSP Residual norm 2.61275e-08 
594 KSP Residual norm 2.51059e-08 
595 KSP Residual norm 2.51214e-08 
596 KSP Residual norm 2.59622e-08 
597 KSP Residual norm 2.77117e-08 
598 KSP Residual norm 3.03997e-08 
599 KSP Residual norm 3.52026e-08 
600 KSP Residual norm 3.99954e-08 
601 KSP Residual norm 4.17665e-08 
602 KSP Residual norm 4.12347e-08 
603 KSP Residual norm 3.97715e-08 
604 KSP Residual norm 3.88446e-08 
605 KSP Residual norm 3.76768e-08 
606 KSP Residual norm 3.63078e-08 
607 KSP Residual norm 3.52049e-08 
608 KSP Residual norm 3.49984e-08 
609 KSP Residual norm 3.40009e-08 
610 KSP Residual norm 3.14465e-08 
611 KSP Residual norm 2.84199e-08 
612 KSP Residual norm 2.67088e-08 
613 KSP Residual norm 2.77527e-08 
614 KSP Residual norm 3.25162e-08 
615 KSP Residual norm 3.96686e-08 
616 KSP Residual norm 4.64802e-08 
617 KSP Residual norm 5.11764e-08 
618 KSP Residual norm 5.38598e-08 
619 KSP Residual norm 5.65371e-08 
620 KSP Residual norm 5.7918e-08 
621 KSP Residual norm 5.88781e-08 
622 KSP Residual norm 6.04493e-08 
623 KSP Residual norm 6.23904e-08 
624 KSP Residual norm 6.14307e-08 
625 KSP Residual norm 5.99345e-08 
626 KSP Residual norm 5.7329e-08 
627 KSP Residual norm 5.17303e-08 
628 KSP Residual norm 4.507e-08 
629 KSP Residual norm 3.90411e-08 
630 KSP Residual norm 3.49811e-08 
631 KSP Residual norm 3.23778e-08 
632 KSP Residual norm 3.26988e-08 
633 KSP Residual norm 3.49585e-08 
634 KSP Residual norm 3.86961e-08 
635 KSP Residual norm 4.30243e-08 
636 KSP Residual norm 4.54109e-08 
637 KSP Residual norm 4.34289e-08 
638 KSP Residual norm 3.95326e-08 
639 KSP Residual norm 3.55611e-08 
640 KSP Residual norm 3.23801e-08 
641 KSP Residual norm 3.01316e-08 
642 KSP Residual norm 2.67061e-08 
643 KSP Residual norm 2.27095e-08 
644 KSP Residual norm 1.96158e-08 
645 KSP Residual norm 1.81116e-08 
646 KSP Residual norm 1.82768e-08 
647 KSP Residual norm 1.87221e-08 
648 KSP Residual norm 1.87669e-08 
649 KSP Residual norm 1.77702e-08 
650 KSP Residual norm 1.61889e-08 
651 KSP Residual norm 1.43937e-08 
652 KSP Residual norm 1.22635e-08 
653 KSP Residual norm 1.05793e-08 
654 KSP Residual norm 9.42093e-09 
655 KSP Residual norm 8.45725e-09 
656 KSP Residual norm 7.52718e-09 
657 KSP Residual norm 6.48648e-09 
658 KSP Residual norm 5.4765e-09 
659 KSP Residual norm 4.5751e-09 
660 KSP Residual norm 3.98853e-09 
661 KSP Residual norm 3.74886e-09 
662 KSP Residual norm 3.73618e-09 
663 KSP Residual norm 3.99768e-09 
664 KSP Residual norm 4.23608e-09 
665 KSP Residual norm 4.49344e-09 
666 KSP Residual norm 4.75868e-09 
667 KSP Residual norm 4.95115e-09 
668 KSP Residual norm 4.755e-09 
669 KSP Residual norm 4.23806e-09 
670 KSP Residual norm 3.6617e-09 
671 KSP Residual norm 3.28884e-09 
672 KSP Residual norm 3.05065e-09 
673 KSP Residual norm 2.91545e-09 
674 KSP Residual norm 2.83922e-09 
675 KSP Residual norm 2.79242e-09 
676 KSP Residual norm 2.82163e-09 
677 KSP Residual norm 2.97204e-09 
678 KSP Residual norm 3.09564e-09 
679 KSP Residual norm 3.24164e-09 
680 KSP Residual norm 3.16408e-09 
681 KSP Residual norm 2.99708e-09 
682 KSP Residual norm 2.87971e-09 
683 KSP Residual norm 2.83223e-09 
684 KSP Residual norm 2.69503e-09 
685 KSP Residual norm 2.45866e-09 
686 KSP Residual norm 2.24527e-09 
687 KSP Residual norm 2.08383e-09 
688 KSP Residual norm 1.93922e-09 
689 KSP Residual norm 1.83869e-09 
690 KSP Residual norm 1.73858e-09 
691 KSP Residual norm 1.65287e-09 
692 KSP Residual norm 1.55089e-09 
693 KSP Residual norm 1.41627e-09 
694 KSP Residual norm 1.25569e-09 
695 KSP Residual norm 1.12188e-09 
696 KSP Residual norm 1.0462e-09 
697 KSP Residual norm 1.01283e-09 
698 KSP Residual norm 1.00861e-09 
699 KSP Residual norm 9.960e-10 
700 KSP Residual norm 9.950e-10 
701 KSP Residual norm 1.03068e-09 
702 KSP Residual norm 1.12216e-09 
703 KSP Residual norm 1.26685e-09 
704 KSP Residual norm 1.42451e-09 
705 KSP Residual norm 1.53264e-09 
706 KSP Residual norm 1.65065e-09 
707 KSP Residual norm 1.79877e-09 
708 KSP Residual norm 1.96644e-09 
709 KSP Residual norm 2.03141e-09 
710 KSP Residual norm 2.06532e-09 
711 KSP Residual norm 2.11101e-09 
712 KSP Residual norm 2.20989e-09 
713 KSP Residual norm 2.29912e-09 
714 KSP Residual norm 2.39702e-09 
715 KSP Residual norm 2.47329e-09 
716 KSP Residual norm 2.54765e-09 
717 KSP Residual norm 2.6191e-09 
718 KSP Residual norm 2.6742e-09 
719 KSP Residual norm 2.74368e-09 
720 KSP Residual norm 2.81541e-09 
721 KSP Residual norm 2.8372e-09 
722 KSP Residual norm 2.89134e-09 
723 KSP Residual norm 3.01358e-09 
724 KSP Residual norm 3.11169e-09 
725 KSP Residual norm 3.12529e-09 
726 KSP Residual norm 3.02339e-09 
727 KSP Residual norm 3.00185e-09 
728 KSP Residual norm 2.99888e-09 
729 KSP Residual norm 3.06564e-09 
730 KSP Residual norm 3.06144e-09 
731 KSP Residual norm 2.96935e-09 
732 KSP Residual norm 2.80993e-09 
733 KSP Residual norm 2.70257e-09 
734 KSP Residual norm 2.64245e-09 
735 KSP Residual norm 2.6211e-09 
736 KSP Residual norm 2.60767e-09 
737 KSP Residual norm 2.61263e-09 
738 KSP Residual norm 2.75013e-09 
739 KSP Residual norm 3.04485e-09 
740 KSP Residual norm 3.39131e-09 
741 KSP Residual norm 3.58142e-09 
742 KSP Residual norm 3.43235e-09 
743 KSP Residual norm 3.03992e-09 
744 KSP Residual norm 2.75182e-09 
745 KSP Residual norm 2.47772e-09 
746 KSP Residual norm 2.20845e-09 
747 KSP Residual norm 1.97592e-09 
748 KSP Residual norm 1.83144e-09 
749 KSP Residual norm 1.70566e-09 
750 KSP Residual norm 1.55604e-09 
751 KSP Residual norm 1.43826e-09 
752 KSP Residual norm 1.30261e-09 
753 KSP Residual norm 1.20491e-09 
754 KSP Residual norm 1.15918e-09 
755 KSP Residual norm 1.16418e-09 
756 KSP Residual norm 1.22136e-09 
757 KSP Residual norm 1.34142e-09 
758 KSP Residual norm 1.56016e-09 
759 KSP Residual norm 1.95546e-09 
760 KSP Residual norm 2.45875e-09 
761 KSP Residual norm 3.01302e-09 
762 KSP Residual norm 3.67036e-09 
763 KSP Residual norm 4.22569e-09 
764 KSP Residual norm 4.71594e-09 
765 KSP Residual norm 5.01967e-09 
766 KSP Residual norm 5.0847e-09 
767 KSP Residual norm 4.77267e-09 
768 KSP Residual norm 4.20028e-09 
769 KSP Residual norm 3.72275e-09 
770 KSP Residual norm 3.47606e-09 
771 KSP Residual norm 3.48627e-09 
772 KSP Residual norm 3.51513e-09 
773 KSP Residual norm 3.44639e-09 
774 KSP Residual norm 3.27636e-09 
775 KSP Residual norm 3.13414e-09 
776 KSP Residual norm 2.99451e-09 
777 KSP Residual norm 2.92771e-09 
778 KSP Residual norm 2.87879e-09 
779 KSP Residual norm 2.88519e-09 
780 KSP Residual norm 3.08283e-09 
781 KSP Residual norm 3.28917e-09 
782 KSP Residual norm 3.37133e-09 
783 KSP Residual norm 3.27096e-09 
784 KSP Residual norm 3.1391e-09 
785 KSP Residual norm 3.00491e-09 
786 KSP Residual norm 2.95502e-09 
787 KSP Residual norm 3.03618e-09 
788 KSP Residual norm 3.14979e-09 
789 KSP Residual norm 3.27414e-09 
790 KSP Residual norm 3.33915e-09 
791 KSP Residual norm 3.36586e-09 
792 KSP Residual norm 3.29645e-09 
793 KSP Residual norm 3.22517e-09 
794 KSP Residual norm 3.16791e-09 
795 KSP Residual norm 3.12449e-09 
796 KSP Residual norm 3.16844e-09 
797 KSP Residual norm 3.26284e-09 
798 KSP Residual norm 3.39241e-09 
799 KSP Residual norm 3.53312e-09 
800 KSP Residual norm 3.78021e-09 
801 KSP Residual norm 4.0694e-09 
802 KSP Residual norm 4.31169e-09 
803 KSP Residual norm 4.4412e-09 
804 KSP Residual norm 4.39617e-09 
805 KSP Residual norm 4.3167e-09 
806 KSP Residual norm 4.24655e-09 
807 KSP Residual norm 4.31842e-09 
808 KSP Residual norm 4.50231e-09 
809 KSP Residual norm 4.64168e-09 
810 KSP Residual norm 4.75345e-09 
811 KSP Residual norm 4.83023e-09 
812 KSP Residual norm 4.80969e-09 
813 KSP Residual norm 4.53767e-09 
814 KSP Residual norm 4.03101e-09 
815 KSP Residual norm 3.4941e-09 
816 KSP Residual norm 3.0849e-09 
817 KSP Residual norm 2.79566e-09 
818 KSP Residual norm 2.57197e-09 
819 KSP Residual norm 2.38645e-09 
820 KSP Residual norm 2.22448e-09 
821 KSP Residual norm 2.14196e-09 
822 KSP Residual norm 2.17608e-09 
823 KSP Residual norm 2.30734e-09 
824 KSP Residual norm 2.45221e-09 
825 KSP Residual norm 2.56151e-09 
826 KSP Residual norm 2.6524e-09 
827 KSP Residual norm 2.67305e-09 
828 KSP Residual norm 2.67172e-09 
829 KSP Residual norm 2.6786e-09 
830 KSP Residual norm 2.6558e-09 
831 KSP Residual norm 2.65857e-09 
832 KSP Residual norm 2.62756e-09 
833 KSP Residual norm 2.5364e-09 
834 KSP Residual norm 2.47251e-09 
835 KSP Residual norm 2.45619e-09 
836 KSP Residual norm 2.49621e-09 
837 KSP Residual norm 2.58486e-09 
838 KSP Residual norm 2.69342e-09 
839 KSP Residual norm 2.83746e-09 
840 KSP Residual norm 3.05049e-09 
841 KSP Residual norm 3.28373e-09 
842 KSP Residual norm 3.45821e-09 
843 KSP Residual norm 3.55771e-09 
844 KSP Residual norm 3.59698e-09 
845 KSP Residual norm 3.59984e-09 
846 KSP Residual norm 3.57172e-09 
847 KSP Residual norm 3.60532e-09 
848 KSP Residual norm 3.73175e-09 
849 KSP Residual norm 3.87348e-09 
850 KSP Residual norm 4.07592e-09 
851 KSP Residual norm 4.36056e-09 
852 KSP Residual norm 4.65587e-09 
853 KSP Residual norm 4.90357e-09 
854 KSP Residual norm 5.13804e-09 
855 KSP Residual norm 5.46848e-09 
856 KSP Residual norm 5.92434e-09 
857 KSP Residual norm 6.4848e-09 
858 KSP Residual norm 7.0251e-09 
859 KSP Residual norm 7.46796e-09 
860 KSP Residual norm 7.71752e-09 
861 KSP Residual norm 7.69205e-09 
862 KSP Residual norm 7.65663e-09 
863 KSP Residual norm 7.64189e-09 
864 KSP Residual norm 7.64979e-09 
865 KSP Residual norm 7.73936e-09 
866 KSP Residual norm 7.71288e-09 
867 KSP Residual norm 7.52011e-09 
868 KSP Residual norm 7.15066e-09 
869 KSP Residual norm 6.84457e-09 
870 KSP Residual norm 6.70408e-09 
871 KSP Residual norm 6.42987e-09 
872 KSP Residual norm 6.14377e-09 
873 KSP Residual norm 6.00244e-09 
874 KSP Residual norm 5.88712e-09 
875 KSP Residual norm 5.76265e-09 
876 KSP Residual norm 5.58784e-09 
877 KSP Residual norm 5.37901e-09 
878 KSP Residual norm 5.22341e-09 
879 KSP Residual norm 5.1914e-09 
880 KSP Residual norm 5.2787e-09 
881 KSP Residual norm 5.50943e-09 
882 KSP Residual norm 5.93736e-09 
883 KSP Residual norm 6.40751e-09 
884 KSP Residual norm 7.01955e-09 
885 KSP Residual norm 7.90392e-09 
886 KSP Residual norm 8.61599e-09 
887 KSP Residual norm 9.05469e-09 
888 KSP Residual norm 9.2807e-09 
889 KSP Residual norm 9.20754e-09 
890 KSP Residual norm 9.21651e-09 
891 KSP Residual norm 9.52178e-09 
892 KSP Residual norm 1.01146e-08 
893 KSP Residual norm 1.09899e-08 
894 KSP Residual norm 1.19393e-08 
895 KSP Residual norm 1.28625e-08 
896 KSP Residual norm 1.37602e-08 
897 KSP Residual norm 1.49274e-08 
898 KSP Residual norm 1.69944e-08 
899 KSP Residual norm 2.01265e-08 
900 KSP Residual norm 2.39424e-08 
901 KSP Residual norm 2.78735e-08 
902 KSP Residual norm 3.132e-08 
903 KSP Residual norm 3.36966e-08 
904 KSP Residual norm 3.44175e-08 
905 KSP Residual norm 3.40074e-08 
906 KSP Residual norm 3.32781e-08 
907 KSP Residual norm 3.21534e-08 
908 KSP Residual norm 3.04795e-08 
909 KSP Residual norm 2.81892e-08 
910 KSP Residual norm 2.56415e-08 
911 KSP Residual norm 2.33438e-08 
912 KSP Residual norm 2.14544e-08 
913 KSP Residual norm 2.03157e-08 
914 KSP Residual norm 2.00131e-08 
915 KSP Residual norm 2.0186e-08 
916 KSP Residual norm 2.0491e-08 
917 KSP Residual norm 2.05682e-08 
918 KSP Residual norm 2.05516e-08 
919 KSP Residual norm 2.08289e-08 
920 KSP Residual norm 2.12272e-08 
921 KSP Residual norm 2.18896e-08 
922 KSP Residual norm 2.31277e-08 
923 KSP Residual norm 2.47138e-08 
924 KSP Residual norm 2.67736e-08 
925 KSP Residual norm 2.90614e-08 
926 KSP Residual norm 3.04355e-08 
927 KSP Residual norm 3.05316e-08 
928 KSP Residual norm 2.9591e-08 
929 KSP Residual norm 2.816e-08 
930 KSP Residual norm 2.71581e-08 
931 KSP Residual norm 2.69693e-08 
932 KSP Residual norm 2.71315e-08 
933 KSP Residual norm 2.70899e-08 
934 KSP Residual norm 2.69578e-08 
935 KSP Residual norm 2.7061e-08 
936 KSP Residual norm 2.71943e-08 
937 KSP Residual norm 2.70579e-08 
938 KSP Residual norm 2.65775e-08 
939 KSP Residual norm 2.57716e-08 
940 KSP Residual norm 2.46406e-08 
941 KSP Residual norm 2.32805e-08 
942 KSP Residual norm 2.22758e-08 
943 KSP Residual norm 2.1945e-08 
944 KSP Residual norm 2.18368e-08 
945 KSP Residual norm 2.16998e-08 
946 KSP Residual norm 2.14861e-08 
947 KSP Residual norm 2.09039e-08 
948 KSP Residual norm 1.99868e-08 
949 KSP Residual norm 1.90559e-08 
950 KSP Residual norm 1.8196e-08 
951 KSP Residual norm 1.73306e-08 
952 KSP Residual norm 1.64454e-08 
953 KSP Residual norm 1.56025e-08 
954 KSP Residual norm 1.48372e-08 
955 KSP Residual norm 1.41345e-08 
956 KSP Residual norm 1.34941e-08 
957 KSP Residual norm 1.30417e-08 
958 KSP Residual norm 1.28397e-08 
959 KSP Residual norm 1.26356e-08 
960 KSP Residual norm 1.23983e-08 
961 KSP Residual norm 1.24151e-08 
962 KSP Residual norm 1.25637e-08 
963 KSP Residual norm 1.25216e-08 
964 KSP Residual norm 1.23609e-08 
965 KSP Residual norm 1.22339e-08 
966 KSP Residual norm 1.21664e-08 
967 KSP Residual norm 1.20286e-08 
968 KSP Residual norm 1.16612e-08 
969 KSP Residual norm 1.1187e-08 
970 KSP Residual norm 1.06999e-08 
971 KSP Residual norm 1.01847e-08 
972 KSP Residual norm 9.79532e-09 
973 KSP Residual norm 9.6161e-09 
974 KSP Residual norm 9.55858e-09 
975 KSP Residual norm 9.41145e-09 
976 KSP Residual norm 8.91816e-09 
977 KSP Residual norm 8.21433e-09 
978 KSP Residual norm 7.61635e-09 
979 KSP Residual norm 7.17724e-09 
980 KSP Residual norm 6.9267e-09 
981 KSP Residual norm 6.892e-09 
982 KSP Residual norm 6.95048e-09 
983 KSP Residual norm 7.0439e-09 
984 KSP Residual norm 7.19902e-09 
985 KSP Residual norm 7.38218e-09 
986 KSP Residual norm 7.53775e-09 
987 KSP Residual norm 7.57389e-09 
988 KSP Residual norm 7.45042e-09 
989 KSP Residual norm 7.23227e-09 
990 KSP Residual norm 6.93425e-09 
991 KSP Residual norm 6.60689e-09 
992 KSP Residual norm 6.33454e-09 
993 KSP Residual norm 6.09526e-09 
994 KSP Residual norm 5.86355e-09 
995 KSP Residual norm 5.64387e-09 
996 KSP Residual norm 5.43493e-09 
997 KSP Residual norm 5.27959e-09 
998 KSP Residual norm 5.18973e-09 
999 KSP Residual norm 5.16083e-09 
1000 KSP Residual norm 5.23698e-09 
1001 KSP Residual norm 5.40483e-09 
1002 KSP Residual norm 5.6348e-09 
1003 KSP Residual norm 5.94038e-09 
1004 KSP Residual norm 6.22972e-09 
1005 KSP Residual norm 6.41778e-09 
1006 KSP Residual norm 6.56371e-09 
1007 KSP Residual norm 6.68638e-09 
1008 KSP Residual norm 6.79983e-09 
1009 KSP Residual norm 6.9833e-09 
1010 KSP Residual norm 7.25307e-09 
1011 KSP Residual norm 7.65515e-09 
1012 KSP Residual norm 8.25269e-09 
1013 KSP Residual norm 8.94162e-09 
1014 KSP Residual norm 9.6742e-09 
1015 KSP Residual norm 1.06193e-08 
1016 KSP Residual norm 1.18175e-08 
1017 KSP Residual norm 1.30327e-08 
1018 KSP Residual norm 1.40476e-08 
1019 KSP Residual norm 1.48475e-08 
1020 KSP Residual norm 1.55428e-08 
1021 KSP Residual norm 1.61556e-08 
1022 KSP Residual norm 1.65633e-08 
1023 KSP Residual norm 1.66064e-08 
1024 KSP Residual norm 1.62104e-08 
1025 KSP Residual norm 1.55497e-08 
1026 KSP Residual norm 1.476e-08 
1027 KSP Residual norm 1.37456e-08 
1028 KSP Residual norm 1.26314e-08 
1029 KSP Residual norm 1.16338e-08 
1030 KSP Residual norm 1.06789e-08 
1031 KSP Residual norm 9.85433e-09 
1032 KSP Residual norm 9.38245e-09 
1033 KSP Residual norm 9.13152e-09 
1034 KSP Residual norm 8.94178e-09 
1035 KSP Residual norm 8.88503e-09 
1036 KSP Residual norm 8.83232e-09 
1037 KSP Residual norm 8.62047e-09 
1038 KSP Residual norm 8.4132e-09 
1039 KSP Residual norm 8.30603e-09 
1040 KSP Residual norm 8.28646e-09 
1041 KSP Residual norm 8.49642e-09 
1042 KSP Residual norm 8.94719e-09 
1043 KSP Residual norm 9.45643e-09 
1044 KSP Residual norm 1.00039e-08 
1045 KSP Residual norm 1.05578e-08 
1046 KSP Residual norm 1.09337e-08 
1047 KSP Residual norm 1.11378e-08 
1048 KSP Residual norm 1.12099e-08 
1049 KSP Residual norm 1.09837e-08 
1050 KSP Residual norm 1.03797e-08 
1051 KSP Residual norm 9.49787e-09 
1052 KSP Residual norm 8.49675e-09 
1053 KSP Residual norm 7.51004e-09 
1054 KSP Residual norm 6.55096e-09 
1055 KSP Residual norm 5.6311e-09 
1056 KSP Residual norm 4.83757e-09 
1057 KSP Residual norm 4.21476e-09 
1058 KSP Residual norm 3.7816e-09 
1059 KSP Residual norm 3.54213e-09 
1060 KSP Residual norm 3.41341e-09 
1061 KSP Residual norm 3.31706e-09 
1062 KSP Residual norm 3.25742e-09 
1063 KSP Residual norm 3.18488e-09 
1064 KSP Residual norm 3.01245e-09 
1065 KSP Residual norm 2.78899e-09 
1066 KSP Residual norm 2.57716e-09 
1067 KSP Residual norm 2.385e-09 
1068 KSP Residual norm 2.26253e-09 
1069 KSP Residual norm 2.22521e-09 
1070 KSP Residual norm 2.21192e-09 
1071 KSP Residual norm 2.21121e-09 
1072 KSP Residual norm 2.23846e-09 
1073 KSP Residual norm 2.22628e-09 
1074 KSP Residual norm 2.15184e-09 
1075 KSP Residual norm 2.07366e-09 
1076 KSP Residual norm 1.99374e-09 
1077 KSP Residual norm 1.90055e-09 
1078 KSP Residual norm 1.82816e-09 
1079 KSP Residual norm 1.7736e-09 
1080 KSP Residual norm 1.7261e-09 
1081 KSP Residual norm 1.72851e-09 
1082 KSP Residual norm 1.80441e-09 
1083 KSP Residual norm 1.91678e-09 
1084 KSP Residual norm 2.04367e-09 
1085 KSP Residual norm 2.17574e-09 
1086 KSP Residual norm 2.27861e-09 
1087 KSP Residual norm 2.36295e-09 
1088 KSP Residual norm 2.48596e-09 
1089 KSP Residual norm 2.66684e-09 
1090 KSP Residual norm 2.88448e-09 
1091 KSP Residual norm 3.11857e-09 
1092 KSP Residual norm 3.3702e-09 
1093 KSP Residual norm 3.64698e-09 
1094 KSP Residual norm 3.88991e-09 
1095 KSP Residual norm 4.00424e-09 
1096 KSP Residual norm 4.02274e-09 
1097 KSP Residual norm 4.05099e-09 
1098 KSP Residual norm 4.09977e-09 
1099 KSP Residual norm 4.13801e-09 
1100 KSP Residual norm 4.15563e-09 
1101 KSP Residual norm 4.11835e-09 
1102 KSP Residual norm 4.0093e-09 
1103 KSP Residual norm 3.87772e-09 
1104 KSP Residual norm 3.76859e-09 
1105 KSP Residual norm 3.71369e-09 
1106 KSP Residual norm 3.75186e-09 
1107 KSP Residual norm 3.87246e-09 
1108 KSP Residual norm 4.02653e-09 
1109 KSP Residual norm 4.22133e-09 
1110 KSP Residual norm 4.49128e-09 
1111 KSP Residual norm 4.79108e-09 
1112 KSP Residual norm 5.02167e-09 
1113 KSP Residual norm 5.1088e-09 
1114 KSP Residual norm 5.04392e-09 
1115 KSP Residual norm 4.91151e-09 
1116 KSP Residual norm 4.81229e-09 
1117 KSP Residual norm 4.76208e-09 
1118 KSP Residual norm 4.72997e-09 
1119 KSP Residual norm 4.69875e-09 
1120 KSP Residual norm 4.6451e-09 
1121 KSP Residual norm 4.54281e-09 
1122 KSP Residual norm 4.3993e-09 
1123 KSP Residual norm 4.23748e-09 
1124 KSP Residual norm 4.08059e-09 
1125 KSP Residual norm 3.96247e-09 
1126 KSP Residual norm 3.91744e-09 
1127 KSP Residual norm 3.97556e-09 
1128 KSP Residual norm 4.15534e-09 
1129 KSP Residual norm 4.42732e-09 
1130 KSP Residual norm 4.7297e-09 
1131 KSP Residual norm 5.0553e-09 
1132 KSP Residual norm 5.45043e-09 
1133 KSP Residual norm 5.87667e-09 
1134 KSP Residual norm 6.20598e-09 
1135 KSP Residual norm 6.38413e-09 
1136 KSP Residual norm 6.46471e-09 
1137 KSP Residual norm 6.48691e-09 
1138 KSP Residual norm 6.41314e-09 
1139 KSP Residual norm 6.2232e-09 
1140 KSP Residual norm 6.00843e-09 
1141 KSP Residual norm 5.89172e-09 
1142 KSP Residual norm 5.86828e-09 
1143 KSP Residual norm 5.86773e-09 
1144 KSP Residual norm 5.92434e-09 
1145 KSP Residual norm 6.11853e-09 
1146 KSP Residual norm 6.39086e-09 
1147 KSP Residual norm 6.62422e-09 
1148 KSP Residual norm 6.83378e-09 
1149 KSP Residual norm 7.06048e-09 
1150 KSP Residual norm 7.22362e-09 
1151 KSP Residual norm 7.26391e-09 
1152 KSP Residual norm 7.27117e-09 
1153 KSP Residual norm 7.34108e-09 
1154 KSP Residual norm 7.44888e-09 
1155 KSP Residual norm 7.54427e-09 
1156 KSP Residual norm 7.64666e-09 
1157 KSP Residual norm 7.81642e-09 
1158 KSP Residual norm 8.08467e-09 
1159 KSP Residual norm 8.4244e-09 
1160 KSP Residual norm 8.79152e-09 
1161 KSP Residual norm 9.17056e-09 
1162 KSP Residual norm 9.56514e-09 
1163 KSP Residual norm 9.97642e-09 
1164 KSP Residual norm 1.04073e-08 
1165 KSP Residual norm 1.08328e-08 
1166 KSP Residual norm 1.11575e-08 
1167 KSP Residual norm 1.12833e-08 
1168 KSP Residual norm 1.12046e-08 
1169 KSP Residual norm 1.09596e-08 
1170 KSP Residual norm 1.05856e-08 
1171 KSP Residual norm 1.01716e-08 
1172 KSP Residual norm 9.8224e-09 
1173 KSP Residual norm 9.56496e-09 
1174 KSP Residual norm 9.37452e-09 
1175 KSP Residual norm 9.22967e-09 
1176 KSP Residual norm 9.10096e-09 
1177 KSP Residual norm 8.94474e-09 
1178 KSP Residual norm 8.72665e-09 
1179 KSP Residual norm 8.42751e-09 
1180 KSP Residual norm 8.06474e-09 
1181 KSP Residual norm 7.70044e-09 
1182 KSP Residual norm 7.37123e-09 
1183 KSP Residual norm 7.06599e-09 
1184 KSP Residual norm 6.81226e-09 
1185 KSP Residual norm 6.6901e-09 
1186 KSP Residual norm 6.72054e-09 
1187 KSP Residual norm 6.84784e-09 
1188 KSP Residual norm 7.03348e-09 
1189 KSP Residual norm 7.25239e-09 
1190 KSP Residual norm 7.43887e-09 
1191 KSP Residual norm 7.56842e-09 
1192 KSP Residual norm 7.69815e-09 
1193 KSP Residual norm 7.80576e-09 
1194 KSP Residual norm 7.7641e-09 
1195 KSP Residual norm 7.55452e-09 
1196 KSP Residual norm 7.29689e-09 
1197 KSP Residual norm 7.04077e-09 
1198 KSP Residual norm 6.76072e-09 
1199 KSP Residual norm 6.51907e-09 
1200 KSP Residual norm 6.41781e-09 
1201 KSP Residual norm 6.45922e-09 
1202 KSP Residual norm 6.56835e-09 
1203 KSP Residual norm 6.69879e-09 
1204 KSP Residual norm 6.85017e-09 
1205 KSP Residual norm 7.03138e-09 
1206 KSP Residual norm 7.216e-09 
1207 KSP Residual norm 7.31511e-09 
1208 KSP Residual norm 7.26101e-09 
1209 KSP Residual norm 7.11232e-09 
1210 KSP Residual norm 6.96666e-09 
1211 KSP Residual norm 6.81764e-09 
1212 KSP Residual norm 6.63736e-09 
1213 KSP Residual norm 6.50363e-09 
1214 KSP Residual norm 6.5218e-09 
1215 KSP Residual norm 6.67783e-09 
1216 KSP Residual norm 6.87417e-09 
1217 KSP Residual norm 7.05538e-09 
1218 KSP Residual norm 7.22966e-09 
1219 KSP Residual norm 7.43628e-09 
1220 KSP Residual norm 7.69446e-09 
1221 KSP Residual norm 7.96702e-09 
1222 KSP Residual norm 8.23516e-09 
1223 KSP Residual norm 8.5817e-09 
1224 KSP Residual norm 9.06473e-09 
1225 KSP Residual norm 9.53012e-09 
1226 KSP Residual norm 9.79226e-09 
1227 KSP Residual norm 9.92766e-09 
1228 KSP Residual norm 1.01233e-08 
1229 KSP Residual norm 1.03607e-08 
1230 KSP Residual norm 1.05146e-08 
1231 KSP Residual norm 1.05949e-08 
1232 KSP Residual norm 1.06415e-08 
1233 KSP Residual norm 1.05578e-08 
1234 KSP Residual norm 1.02302e-08 
1235 KSP Residual norm 9.66323e-09 
1236 KSP Residual norm 8.91891e-09 
1237 KSP Residual norm 8.07356e-09 
1238 KSP Residual norm 7.22899e-09 
1239 KSP Residual norm 6.45099e-09 
1240 KSP Residual norm 5.74028e-09 
1241 KSP Residual norm 5.09427e-09 
1242 KSP Residual norm 4.5356e-09 
1243 KSP Residual norm 4.07824e-09 
1244 KSP Residual norm 3.71823e-09 
1245 KSP Residual norm 3.45133e-09 
1246 KSP Residual norm 3.26493e-09 
1247 KSP Residual norm 3.13024e-09 
1248 KSP Residual norm 3.0253e-09 
1249 KSP Residual norm 2.95005e-09 
1250 KSP Residual norm 2.90491e-09 
1251 KSP Residual norm 2.87663e-09 
1252 KSP Residual norm 2.85781e-09 
1253 KSP Residual norm 2.85565e-09 
1254 KSP Residual norm 2.87431e-09 
1255 KSP Residual norm 2.91201e-09 
1256 KSP Residual norm 2.97448e-09 
1257 KSP Residual norm 3.06897e-09 
1258 KSP Residual norm 3.19168e-09 
1259 KSP Residual norm 3.33817e-09 
1260 KSP Residual norm 3.51173e-09 
1261 KSP Residual norm 3.70449e-09 
1262 KSP Residual norm 3.89061e-09 
1263 KSP Residual norm 4.0575e-09 
1264 KSP Residual norm 4.21662e-09 
1265 KSP Residual norm 4.36661e-09 
1266 KSP Residual norm 4.48048e-09 
1267 KSP Residual norm 4.54079e-09 
1268 KSP Residual norm 4.55723e-09 
1269 KSP Residual norm 4.54948e-09 
1270 KSP Residual norm 4.54045e-09 
1271 KSP Residual norm 4.55477e-09 
1272 KSP Residual norm 4.60037e-09 
1273 KSP Residual norm 4.66839e-09 
1274 KSP Residual norm 4.76216e-09 
1275 KSP Residual norm 4.89641e-09 
1276 KSP Residual norm 5.05268e-09 
1277 KSP Residual norm 5.18188e-09 
1278 KSP Residual norm 5.26992e-09 
1279 KSP Residual norm 5.35478e-09 
1280 KSP Residual norm 5.4597e-09 
1281 KSP Residual norm 5.55216e-09 
1282 KSP Residual norm 5.59908e-09 
1283 KSP Residual norm 5.62158e-09 
1284 KSP Residual norm 5.66127e-09 
1285 KSP Residual norm 5.71747e-09 
1286 KSP Residual norm 5.74221e-09 
1287 KSP Residual norm 5.6901e-09 
1288 KSP Residual norm 5.56172e-09 
1289 KSP Residual norm 5.39396e-09 
1290 KSP Residual norm 5.20863e-09 
1291 KSP Residual norm 4.99307e-09 
1292 KSP Residual norm 4.74517e-09 
1293 KSP Residual norm 4.50501e-09 
1294 KSP Residual norm 4.31663e-09 
1295 KSP Residual norm 4.18063e-09 
1296 KSP Residual norm 4.0651e-09 
1297 KSP Residual norm 3.94654e-09 
1298 KSP Residual norm 3.82203e-09 
1299 KSP Residual norm 3.69265e-09 
1300 KSP Residual norm 3.55614e-09 
1301 KSP Residual norm 3.41062e-09 
1302 KSP Residual norm 3.25429e-09 
1303 KSP Residual norm 3.09222e-09 
1304 KSP Residual norm 2.94519e-09 
1305 KSP Residual norm 2.83291e-09 
1306 KSP Residual norm 2.74873e-09 
1307 KSP Residual norm 2.67505e-09 
1308 KSP Residual norm 2.62225e-09 
1309 KSP Residual norm 2.62401e-09 
1310 KSP Residual norm 2.6822e-09 
1311 KSP Residual norm 2.75157e-09 
1312 KSP Residual norm 2.80347e-09 
1313 KSP Residual norm 2.86695e-09 
1314 KSP Residual norm 2.97659e-09 
1315 KSP Residual norm 3.10907e-09 
1316 KSP Residual norm 3.21365e-09 
1317 KSP Residual norm 3.28285e-09 
1318 KSP Residual norm 3.35113e-09 
1319 KSP Residual norm 3.42745e-09 
1320 KSP Residual norm 3.47638e-09 
1321 KSP Residual norm 3.47725e-09 
1322 KSP Residual norm 3.44741e-09 
1323 KSP Residual norm 3.40152e-09 
1324 KSP Residual norm 3.33432e-09 
1325 KSP Residual norm 3.2459e-09 
1326 KSP Residual norm 3.15078e-09 
1327 KSP Residual norm 3.05547e-09 
1328 KSP Residual norm 2.95385e-09 
1329 KSP Residual norm 2.84736e-09 
1330 KSP Residual norm 2.74971e-09 
1331 KSP Residual norm 2.67214e-09 
1332 KSP Residual norm 2.6166e-09 
1333 KSP Residual norm 2.58063e-09 
1334 KSP Residual norm 2.55709e-09 
1335 KSP Residual norm 2.53126e-09 
1336 KSP Residual norm 2.49045e-09 
1337 KSP Residual norm 2.43441e-09 
1338 KSP Residual norm 2.36654e-09 
1339 KSP Residual norm 2.28225e-09 
1340 KSP Residual norm 2.17927e-09 
1341 KSP Residual norm 2.07176e-09 
1342 KSP Residual norm 1.97841e-09 
1343 KSP Residual norm 1.90516e-09 
1344 KSP Residual norm 1.85176e-09 
1345 KSP Residual norm 1.82641e-09 
1346 KSP Residual norm 1.84197e-09 
1347 KSP Residual norm 1.89942e-09 
1348 KSP Residual norm 1.98463e-09 
1349 KSP Residual norm 2.08047e-09 
1350 KSP Residual norm 2.17177e-09 
1351 KSP Residual norm 2.2384e-09 
1352 KSP Residual norm 2.25972e-09 
1353 KSP Residual norm 2.23341e-09 
1354 KSP Residual norm 2.17639e-09 
1355 KSP Residual norm 2.10421e-09 
1356 KSP Residual norm 2.02169e-09 
1357 KSP Residual norm 1.93309e-09 
1358 KSP Residual norm 1.84685e-09 
1359 KSP Residual norm 1.76806e-09 
1360 KSP Residual norm 1.69658e-09 
1361 KSP Residual norm 1.63389e-09 
1362 KSP Residual norm 1.58263e-09 
1363 KSP Residual norm 1.53897e-09 
1364 KSP Residual norm 1.49578e-09 
1365 KSP Residual norm 1.45682e-09 
1366 KSP Residual norm 1.43664e-09 
1367 KSP Residual norm 1.43936e-09 
1368 KSP Residual norm 1.44956e-09 
1369 KSP Residual norm 1.45085e-09 
1370 KSP Residual norm 1.44476e-09 
1371 KSP Residual norm 1.4452e-09 
1372 KSP Residual norm 1.45529e-09 
1373 KSP Residual norm 1.46364e-09 
1374 KSP Residual norm 1.46399e-09 
1375 KSP Residual norm 1.46255e-09 
1376 KSP Residual norm 1.46662e-09 
1377 KSP Residual norm 1.4749e-09 
1378 KSP Residual norm 1.48128e-09 
1379 KSP Residual norm 1.48298e-09 
1380 KSP Residual norm 1.48088e-09 
1381 KSP Residual norm 1.47652e-09 
1382 KSP Residual norm 1.47236e-09 
1383 KSP Residual norm 1.47133e-09 
1384 KSP Residual norm 1.47304e-09 
1385 KSP Residual norm 1.47294e-09 
1386 KSP Residual norm 1.46707e-09 
1387 KSP Residual norm 1.45502e-09 
1388 KSP Residual norm 1.43753e-09 
1389 KSP Residual norm 1.41481e-09 
1390 KSP Residual norm 1.38786e-09 
1391 KSP Residual norm 1.35806e-09 
1392 KSP Residual norm 1.32413e-09 
1393 KSP Residual norm 1.28375e-09 
1394 KSP Residual norm 1.23927e-09 
1395 KSP Residual norm 1.19814e-09 
1396 KSP Residual norm 1.16729e-09 
1397 KSP Residual norm 1.14838e-09 
1398 KSP Residual norm 1.13823e-09 
1399 KSP Residual norm 1.13217e-09 
1400 KSP Residual norm 1.12631e-09 
1401 KSP Residual norm 1.11894e-09 
1402 KSP Residual norm 1.11242e-09 
1403 KSP Residual norm 1.11224e-09 
1404 KSP Residual norm 1.12153e-09 
1405 KSP Residual norm 1.13697e-09 
1406 KSP Residual norm 1.15178e-09 
1407 KSP Residual norm 1.16184e-09 
1408 KSP Residual norm 1.16728e-09 
1409 KSP Residual norm 1.1692e-09 
1410 KSP Residual norm 1.16705e-09 
1411 KSP Residual norm 1.15997e-09 
1412 KSP Residual norm 1.14916e-09 
1413 KSP Residual norm 1.13761e-09 
1414 KSP Residual norm 1.12769e-09 
1415 KSP Residual norm 1.11885e-09 
1416 KSP Residual norm 1.10805e-09 
1417 KSP Residual norm 1.09306e-09 
1418 KSP Residual norm 1.076e-09 
1419 KSP Residual norm 1.06206e-09 
1420 KSP Residual norm 1.05366e-09 
1421 KSP Residual norm 1.04816e-09 
1422 KSP Residual norm 1.04257e-09 
1423 KSP Residual norm 1.03815e-09 
1424 KSP Residual norm 1.03828e-09 
1425 KSP Residual norm 1.0436e-09 
1426 KSP Residual norm 1.05276e-09 
1427 KSP Residual norm 1.06778e-09 
1428 KSP Residual norm 1.09387e-09 
1429 KSP Residual norm 1.13265e-09 
1430 KSP Residual norm 1.17864e-09 
1431 KSP Residual norm 1.22527e-09 
1432 KSP Residual norm 1.27293e-09 
1433 KSP Residual norm 1.32703e-09 
1434 KSP Residual norm 1.38788e-09 
1435 KSP Residual norm 1.44776e-09 
1436 KSP Residual norm 1.49883e-09 
1437 KSP Residual norm 1.53905e-09 
1438 KSP Residual norm 1.57024e-09 
1439 KSP Residual norm 1.59511e-09 
1440 KSP Residual norm 1.61726e-09 
1441 KSP Residual norm 1.63956e-09 
1442 KSP Residual norm 1.66037e-09 
1443 KSP Residual norm 1.67565e-09 
1444 KSP Residual norm 1.68743e-09 
1445 KSP Residual norm 1.70708e-09 
1446 KSP Residual norm 1.74414e-09 
1447 KSP Residual norm 1.79319e-09 
1448 KSP Residual norm 1.84026e-09 
1449 KSP Residual norm 1.88017e-09 
1450 KSP Residual norm 1.92005e-09 
1451 KSP Residual norm 1.96571e-09 
1452 KSP Residual norm 2.01092e-09 
1453 KSP Residual norm 2.04591e-09 
1454 KSP Residual norm 2.07141e-09 
1455 KSP Residual norm 2.0964e-09 
1456 KSP Residual norm 2.12568e-09 
1457 KSP Residual norm 2.15663e-09 
1458 KSP Residual norm 2.18676e-09 
1459 KSP Residual norm 2.21734e-09 
1460 KSP Residual norm 2.24805e-09 
1461 KSP Residual norm 2.27439e-09 
1462 KSP Residual norm 2.29465e-09 
1463 KSP Residual norm 2.3138e-09 
1464 KSP Residual norm 2.33512e-09 
1465 KSP Residual norm 2.35295e-09 
1466 KSP Residual norm 2.36016e-09 
1467 KSP Residual norm 2.35988e-09 
1468 KSP Residual norm 2.36095e-09 
1469 KSP Residual norm 2.36012e-09 
1470 KSP Residual norm 2.34063e-09 
1471 KSP Residual norm 2.29291e-09 
1472 KSP Residual norm 2.22818e-09 
1473 KSP Residual norm 2.16671e-09 
1474 KSP Residual norm 2.11689e-09 
1475 KSP Residual norm 2.07231e-09 
1476 KSP Residual norm 2.0273e-09 
1477 KSP Residual norm 1.98589e-09 
1478 KSP Residual norm 1.95378e-09 
1479 KSP Residual norm 1.92839e-09 
1480 KSP Residual norm 1.9029e-09 
1481 KSP Residual norm 1.87712e-09 
1482 KSP Residual norm 1.85764e-09 
1483 KSP Residual norm 1.84655e-09 
1484 KSP Residual norm 1.83623e-09 
1485 KSP Residual norm 1.81892e-09 
1486 KSP Residual norm 1.79718e-09 
1487 KSP Residual norm 1.78132e-09 
1488 KSP Residual norm 1.77754e-09 
1489 KSP Residual norm 1.78173e-09 
1490 KSP Residual norm 1.78493e-09 
1491 KSP Residual norm 1.78173e-09 
1492 KSP Residual norm 1.77091e-09 
1493 KSP Residual norm 1.75081e-09 
1494 KSP Residual norm 1.71853e-09 
1495 KSP Residual norm 1.67376e-09 
1496 KSP Residual norm 1.62077e-09 
1497 KSP Residual norm 1.56547e-09 
1498 KSP Residual norm 1.5114e-09 
1499 KSP Residual norm 1.45858e-09 
1500 KSP Residual norm 1.40479e-09 
1501 KSP Residual norm 1.3472e-09 
1502 KSP Residual norm 1.28409e-09 
1503 KSP Residual norm 1.21671e-09 
1504 KSP Residual norm 1.14927e-09 
1505 KSP Residual norm 1.08647e-09 
1506 KSP Residual norm 1.03046e-09 
1507 KSP Residual norm 9.804e-10 
1508 KSP Residual norm 9.348e-10 
1509 KSP Residual norm 8.930e-10 
1510 KSP Residual norm 8.551e-10 
1511 KSP Residual norm 8.202e-10 
1512 KSP Residual norm 7.869e-10 
1513 KSP Residual norm 7.552e-10 
1514 KSP Residual norm 7.273e-10 
1515 KSP Residual norm 7.060e-10 
1516 KSP Residual norm 6.915e-10 
1517 KSP Residual norm 6.810e-10 
1518 KSP Residual norm 6.707e-10 
1519 KSP Residual norm 6.581e-10 
1520 KSP Residual norm 6.423e-10 
1521 KSP Residual norm 6.234e-10 
1522 KSP Residual norm 6.010e-10 
1523 KSP Residual norm 5.749e-10 
1524 KSP Residual norm 5.453e-10 
1525 KSP Residual norm 5.133e-10 
1526 KSP Residual norm 4.806e-10 
1527 KSP Residual norm 4.494e-10 
1528 KSP Residual norm 4.206e-10 
1529 KSP Residual norm 3.936e-10 
1530 KSP Residual norm 3.670e-10 
1531 KSP Residual norm 3.398e-10 
1532 KSP Residual norm 3.130e-10 
1533 KSP Residual norm 2.884e-10 
1534 KSP Residual norm 2.677e-10 
1535 KSP Residual norm 2.508e-10 
1536 KSP Residual norm 2.363e-10 
1537 KSP Residual norm 2.229e-10 
1538 KSP Residual norm 2.102e-10 
1539 KSP Residual norm 1.992e-10 
1540 KSP Residual norm 1.910e-10 
1541 KSP Residual norm 1.856e-10 
1542 KSP Residual norm 1.824e-10 
1543 KSP Residual norm 1.805e-10 
1544 KSP Residual norm 1.797e-10 
1545 KSP Residual norm 1.799e-10 
1546 KSP Residual norm 1.816e-10 
1547 KSP Residual norm 1.846e-10 
1548 KSP Residual norm 1.888e-10 
1549 KSP Residual norm 1.939e-10 
1550 KSP Residual norm 2.000e-10 
1551 KSP Residual norm 2.070e-10 
1552 KSP Residual norm 2.149e-10 
1553 KSP Residual norm 2.237e-10 
1554 KSP Residual norm 2.334e-10 
1555 KSP Residual norm 2.442e-10 
1556 KSP Residual norm 2.554e-10 
1557 KSP Residual norm 2.655e-10 
1558 KSP Residual norm 2.727e-10 
1559 KSP Residual norm 2.767e-10 
1560 KSP Residual norm 2.786e-10 
1561 KSP Residual norm 2.803e-10 
1562 KSP Residual norm 2.825e-10 
1563 KSP Residual norm 2.845e-10 
1564 KSP Residual norm 2.854e-10 
1565 KSP Residual norm 2.855e-10 
1566 KSP Residual norm 2.856e-10 
1567 KSP Residual norm 2.858e-10 
1568 KSP Residual norm 2.844e-10 
1569 KSP Residual norm 2.800e-10 
1570 KSP Residual norm 2.727e-10 
1571 KSP Residual norm 2.639e-10 
1572 KSP Residual norm 2.544e-10 
1573 KSP Residual norm 2.441e-10 
1574 KSP Residual norm 2.323e-10 
1575 KSP Residual norm 2.199e-10 
1576 KSP Residual norm 2.081e-10 
1577 KSP Residual norm 1.978e-10 
1578 KSP Residual norm 1.886e-10 
1579 KSP Residual norm 1.798e-10 
1580 KSP Residual norm 1.713e-10 
1581 KSP Residual norm 1.637e-10 
1582 KSP Residual norm 1.571e-10 
1583 KSP Residual norm 1.510e-10 
1584 KSP Residual norm 1.448e-10 
1585 KSP Residual norm 1.383e-10 
1586 KSP Residual norm 1.319e-10 
1587 KSP Residual norm 1.257e-10 
1588 KSP Residual norm 1.193e-10 
1589 KSP Residual norm 1.126e-10 
1590 KSP Residual norm 1.059e-10 
1591 KSP Residual norm 9.997e-11 
1592 KSP Residual norm 9.546e-11 
1593 KSP Residual norm 9.224e-11 
1594 KSP Residual norm 8.985e-11 
1595 KSP Residual norm 8.818e-11 
1596 KSP Residual norm 8.754e-11 
1597 KSP Residual norm 8.831e-11 
1598 KSP Residual norm 9.050e-11 
1599 KSP Residual norm 9.386e-11 
1600 KSP Residual norm 9.817e-11 
1601 KSP Residual norm 1.033e-10 
1602 KSP Residual norm 1.091e-10 
1603 KSP Residual norm 1.147e-10 
1604 KSP Residual norm 1.195e-10 
1605 KSP Residual norm 1.232e-10 
1606 KSP Residual norm 1.263e-10 
1607 KSP Residual norm 1.290e-10 
1608 KSP Residual norm 1.310e-10 
1609 KSP Residual norm 1.317e-10 
1610 KSP Residual norm 1.308e-10 
1611 KSP Residual norm 1.291e-10 
1612 KSP Residual norm 1.270e-10 
1613 KSP Residual norm 1.247e-10 
1614 KSP Residual norm 1.223e-10 
1615 KSP Residual norm 1.195e-10 
1616 KSP Residual norm 1.169e-10 
1617 KSP Residual norm 1.147e-10 
1618 KSP Residual norm 1.129e-10 
1619 KSP Residual norm 1.116e-10 
1620 KSP Residual norm 1.106e-10 
1621 KSP Residual norm 1.101e-10 
1622 KSP Residual norm 1.103e-10 
1623 KSP Residual norm 1.109e-10 
1624 KSP Residual norm 1.118e-10 
1625 KSP Residual norm 1.131e-10 
1626 KSP Residual norm 1.151e-10 
1627 KSP Residual norm 1.180e-10 
1628 KSP Residual norm 1.214e-10 
1629 KSP Residual norm 1.250e-10 
1630 KSP Residual norm 1.288e-10 
1631 KSP Residual norm 1.331e-10 
1632 KSP Residual norm 1.382e-10 
1633 KSP Residual norm 1.438e-10 
1634 KSP Residual norm 1.491e-10 
1635 KSP Residual norm 1.542e-10 
1636 KSP Residual norm 1.598e-10 
1637 KSP Residual norm 1.664e-10 
1638 KSP Residual norm 1.742e-10 
1639 KSP Residual norm 1.823e-10 
1640 KSP Residual norm 1.898e-10 
1641 KSP Residual norm 1.969e-10 
1642 KSP Residual norm 2.039e-10 
1643 KSP Residual norm 2.105e-10 
1644 KSP Residual norm 2.158e-10 
1645 KSP Residual norm 2.192e-10 
1646 KSP Residual norm 2.214e-10 
1647 KSP Residual norm 2.237e-10 
1648 KSP Residual norm 2.267e-10 
1649 KSP Residual norm 2.295e-10 
1650 KSP Residual norm 2.306e-10 
1651 KSP Residual norm 2.292e-10 
1652 KSP Residual norm 2.255e-10 
1653 KSP Residual norm 2.202e-10 
1654 KSP Residual norm 2.134e-10 
1655 KSP Residual norm 2.049e-10 
1656 KSP Residual norm 1.954e-10 
1657 KSP Residual norm 1.863e-10 
1658 KSP Residual norm 1.788e-10 
1659 KSP Residual norm 1.731e-10 
1660 KSP Residual norm 1.686e-10 
1661 KSP Residual norm 1.648e-10 
1662 KSP Residual norm 1.616e-10 
1663 KSP Residual norm 1.594e-10 
1664 KSP Residual norm 1.583e-10 
1665 KSP Residual norm 1.579e-10 
1666 KSP Residual norm 1.574e-10 
1667 KSP Residual norm 1.562e-10 
1668 KSP Residual norm 1.545e-10 
1669 KSP Residual norm 1.528e-10 
1670 KSP Residual norm 1.513e-10 
1671 KSP Residual norm 1.500e-10 
1672 KSP Residual norm 1.488e-10 
1673 KSP Residual norm 1.475e-10 
1674 KSP Residual norm 1.460e-10 
1675 KSP Residual norm 1.441e-10 
1676 KSP Residual norm 1.417e-10 
1677 KSP Residual norm 1.390e-10 
1678 KSP Residual norm 1.365e-10 
1679 KSP Residual norm 1.345e-10 
1680 KSP Residual norm 1.331e-10 
1681 KSP Residual norm 1.318e-10 
1682 KSP Residual norm 1.303e-10 
1683 KSP Residual norm 1.284e-10 
1684 KSP Residual norm 1.263e-10 
1685 KSP Residual norm 1.243e-10 
1686 KSP Residual norm 1.222e-10 
1687 KSP Residual norm 1.198e-10 
1688 KSP Residual norm 1.168e-10 
1689 KSP Residual norm 1.132e-10 
1690 KSP Residual norm 1.093e-10 
1691 KSP Residual norm 1.055e-10 
1692 KSP Residual norm 1.020e-10 
1693 KSP Residual norm 9.909e-11 
1694 KSP Residual norm 9.661e-11 
1695 KSP Residual norm 9.449e-11 
1696 KSP Residual norm 9.258e-11 
1697 KSP Residual norm 9.076e-11 
1698 KSP Residual norm 8.900e-11 
1699 KSP Residual norm 8.743e-11 
1700 KSP Residual norm 8.625e-11 
1701 KSP Residual norm 8.553e-11 
1702 KSP Residual norm 8.518e-11 
1703 KSP Residual norm 8.499e-11 
1704 KSP Residual norm 8.484e-11 
1705 KSP Residual norm 8.478e-11 
1706 KSP Residual norm 8.503e-11 
1707 KSP Residual norm 8.576e-11 
1708 KSP Residual norm 8.702e-11 
1709 KSP Residual norm 8.873e-11 
1710 KSP Residual norm 9.074e-11 
1711 KSP Residual norm 9.294e-11 
1712 KSP Residual norm 9.523e-11 
1713 KSP Residual norm 9.743e-11 
1714 KSP Residual norm 9.935e-11 
1715 KSP Residual norm 1.008e-10 
1716 KSP Residual norm 1.019e-10 
1717 KSP Residual norm 1.027e-10 
1718 KSP Residual norm 1.032e-10 
1719 KSP Residual norm 1.035e-10 
1720 KSP Residual norm 1.036e-10 
1721 KSP Residual norm 1.034e-10 
1722 KSP Residual norm 1.030e-10 
1723 KSP Residual norm 1.024e-10 
1724 KSP Residual norm 1.016e-10 
1725 KSP Residual norm 1.006e-10 
1726 KSP Residual norm 9.952e-11 
1727 KSP Residual norm 9.846e-11 
1728 KSP Residual norm 9.746e-11 
1729 KSP Residual norm 9.647e-11 
1730 KSP Residual norm 9.537e-11 
1731 KSP Residual norm 9.408e-11 
1732 KSP Residual norm 9.265e-11 
1733 KSP Residual norm 9.125e-11 
1734 KSP Residual norm 9.006e-11 
1735 KSP Residual norm 8.912e-11 
1736 KSP Residual norm 8.835e-11 
1737 KSP Residual norm 8.764e-11 
1738 KSP Residual norm 8.698e-11 
1739 KSP Residual norm 8.646e-11 
1740 KSP Residual norm 8.621e-11 
1741 KSP Residual norm 8.628e-11 
1742 KSP Residual norm 8.664e-11 
1743 KSP Residual norm 8.718e-11 
1744 KSP Residual norm 8.781e-11 
1745 KSP Residual norm 8.840e-11 
1746 KSP Residual norm 8.883e-11 
1747 KSP Residual norm 8.900e-11 
1748 KSP Residual norm 8.887e-11 
1749 KSP Residual norm 8.854e-11 
1750 KSP Residual norm 8.816e-11 
1751 KSP Residual norm 8.790e-11 
1752 KSP Residual norm 8.784e-11 
1753 KSP Residual norm 8.798e-11 
1754 KSP Residual norm 8.829e-11 
1755 KSP Residual norm 8.875e-11 
1756 KSP Residual norm 8.937e-11 
1757 KSP Residual norm 9.010e-11 
1758 KSP Residual norm 9.087e-11 
1759 KSP Residual norm 9.154e-11 
1760 KSP Residual norm 9.197e-11 
1761 KSP Residual norm 9.209e-11 
1762 KSP Residual norm 9.189e-11 
1763 KSP Residual norm 9.146e-11 
1764 KSP Residual norm 9.096e-11 
1765 KSP Residual norm 9.054e-11 
1766 KSP Residual norm 9.032e-11 
1767 KSP Residual norm 9.032e-11 
1768 KSP Residual norm 9.042e-11 
1769 KSP Residual norm 9.044e-11 
1770 KSP Residual norm 9.019e-11 
1771 KSP Residual norm 8.956e-11 
1772 KSP Residual norm 8.849e-11 
1773 KSP Residual norm 8.701e-11 
1774 KSP Residual norm 8.517e-11 
1775 KSP Residual norm 8.308e-11 
1776 KSP Residual norm 8.090e-11 
1777 KSP Residual norm 7.875e-11 
1778 KSP Residual norm 7.667e-11 
1779 KSP Residual norm 7.465e-11 
1780 KSP Residual norm 7.263e-11 
1781 KSP Residual norm 7.064e-11 
1782 KSP Residual norm 6.880e-11 
1783 KSP Residual norm 6.725e-11 
1784 KSP Residual norm 6.608e-11 
1785 KSP Residual norm 6.520e-11 
1786 KSP Residual norm 6.444e-11 
1787 KSP Residual norm 6.365e-11 
1788 KSP Residual norm 6.279e-11 
1789 KSP Residual norm 6.194e-11 
1790 KSP Residual norm 6.116e-11 
1791 KSP Residual norm 6.040e-11 
1792 KSP Residual norm 5.954e-11 
1793 KSP Residual norm 5.847e-11 
1794 KSP Residual norm 5.723e-11 
1795 KSP Residual norm 5.593e-11 
1796 KSP Residual norm 5.466e-11 
1797 KSP Residual norm 5.340e-11 
1798 KSP Residual norm 5.198e-11 
1799 KSP Residual norm 5.029e-11 
1800 KSP Residual norm 4.834e-11 
1801 KSP Residual norm 4.634e-11 
1802 KSP Residual norm 4.453e-11 
1803 KSP Residual norm 4.302e-11 
1804 KSP Residual norm 4.175e-11 
1805 KSP Residual norm 4.052e-11 
1806 KSP Residual norm 3.919e-11 
1807 KSP Residual norm 3.772e-11 
1808 KSP Residual norm 3.621e-11 
1809 KSP Residual norm 3.477e-11 
1810 KSP Residual norm 3.348e-11 
1811 KSP Residual norm 3.233e-11 
1812 KSP Residual norm 3.124e-11 
1813 KSP Residual norm 3.019e-11 
1814 KSP Residual norm 2.916e-11 
1815 KSP Residual norm 2.818e-11 
1816 KSP Residual norm 2.729e-11 
1817 KSP Residual norm 2.649e-11 
1818 KSP Residual norm 2.577e-11 
1819 KSP Residual norm 2.512e-11 
1820 KSP Residual norm 2.454e-11 
1821 KSP Residual norm 2.399e-11 
1822 KSP Residual norm 2.346e-11 
1823 KSP Residual norm 2.292e-11 
1824 KSP Residual norm 2.239e-11 
1825 KSP Residual norm 2.188e-11 
1826 KSP Residual norm 2.145e-11 
1827 KSP Residual norm 2.108e-11 
1828 KSP Residual norm 2.075e-11 
1829 KSP Residual norm 2.041e-11 
1830 KSP Residual norm 2.003e-11 
1831 KSP Residual norm 1.962e-11 
1832 KSP Residual norm 1.923e-11 
1833 KSP Residual norm 1.892e-11 
1834 KSP Residual norm 1.869e-11 
1835 KSP Residual norm 1.854e-11 
1836 KSP Residual norm 1.842e-11 
1837 KSP Residual norm 1.831e-11 
1838 KSP Residual norm 1.821e-11 
1839 KSP Residual norm 1.813e-11 
1840 KSP Residual norm 1.809e-11 
1841 KSP Residual norm 1.811e-11 
1842 KSP Residual norm 1.818e-11 
1843 KSP Residual norm 1.829e-11 
1844 KSP Residual norm 1.841e-11 
1845 KSP Residual norm 1.854e-11 
1846 KSP Residual norm 1.864e-11 
1847 KSP Residual norm 1.872e-11 
1848 KSP Residual norm 1.877e-11 
1849 KSP Residual norm 1.880e-11 
1850 KSP Residual norm 1.881e-11 
1851 KSP Residual norm 1.884e-11 
1852 KSP Residual norm 1.886e-11 
1853 KSP Residual norm 1.888e-11 
1854 KSP Residual norm 1.888e-11 
1855 KSP Residual norm 1.886e-11 
1856 KSP Residual norm 1.882e-11 
1857 KSP Residual norm 1.875e-11 
1858 KSP Residual norm 1.862e-11 
1859 KSP Residual norm 1.843e-11 
1860 KSP Residual norm 1.816e-11 
1861 KSP Residual norm 1.784e-11 
1862 KSP Residual norm 1.748e-11 
1863 KSP Residual norm 1.710e-11 
1864 KSP Residual norm 1.668e-11 
1865 KSP Residual norm 1.621e-11 
1866 KSP Residual norm 1.570e-11 
1867 KSP Residual norm 1.517e-11 
1868 KSP Residual norm 1.469e-11 
1869 KSP Residual norm 1.430e-11 
1870 KSP Residual norm 1.401e-11 
1871 KSP Residual norm 1.379e-11 
1872 KSP Residual norm 1.361e-11 
1873 KSP Residual norm 1.343e-11 
1874 KSP Residual norm 1.325e-11 
1875 KSP Residual norm 1.309e-11 
1876 KSP Residual norm 1.297e-11 
1877 KSP Residual norm 1.289e-11 
1878 KSP Residual norm 1.282e-11 
1879 KSP Residual norm 1.276e-11 
1880 KSP Residual norm 1.269e-11 
1881 KSP Residual norm 1.261e-11 
1882 KSP Residual norm 1.251e-11 
1883 KSP Residual norm 1.241e-11 
1884 KSP Residual norm 1.229e-11 
1885 KSP Residual norm 1.216e-11 
1886 KSP Residual norm 1.202e-11 
1887 KSP Residual norm 1.190e-11 
1888 KSP Residual norm 1.179e-11 
1889 KSP Residual norm 1.170e-11 
1890 KSP Residual norm 1.161e-11 
1891 KSP Residual norm 1.152e-11 
1892 KSP Residual norm 1.143e-11 
1893 KSP Residual norm 1.137e-11 
1894 KSP Residual norm 1.135e-11 
1895 KSP Residual norm 1.138e-11 
1896 KSP Residual norm 1.144e-11 
1897 KSP Residual norm 1.152e-11 
1898 KSP Residual norm 1.160e-11 
1899 KSP Residual norm 1.167e-11 
1900 KSP Residual norm 1.174e-11 
1901 KSP Residual norm 1.184e-11 
1902 KSP Residual norm 1.195e-11 
1903 KSP Residual norm 1.209e-11 
1904 KSP Residual norm 1.225e-11 
1905 KSP Residual norm 1.243e-11 
1906 KSP Residual norm 1.264e-11 
1907 KSP Residual norm 1.288e-11 
1908 KSP Residual norm 1.316e-11 
1909 KSP Residual norm 1.350e-11 
1910 KSP Residual norm 1.388e-11 
1911 KSP Residual norm 1.430e-11 
1912 KSP Residual norm 1.472e-11 
1913 KSP Residual norm 1.512e-11 
1914 KSP Residual norm 1.548e-11 
1915 KSP Residual norm 1.579e-11 
1916 KSP Residual norm 1.609e-11 
1917 KSP Residual norm 1.640e-11 
1918 KSP Residual norm 1.674e-11 
1919 KSP Residual norm 1.708e-11 
1920 KSP Residual norm 1.737e-11 
1921 KSP Residual norm 1.759e-11 
1922 KSP Residual norm 1.772e-11 
1923 KSP Residual norm 1.780e-11 
1924 KSP Residual norm 1.789e-11 
1925 KSP Residual norm 1.805e-11 
1926 KSP Residual norm 1.828e-11 
1927 KSP Residual norm 1.856e-11 
1928 KSP Residual norm 1.885e-11 
1929 KSP Residual norm 1.910e-11 
1930 KSP Residual norm 1.932e-11 
1931 KSP Residual norm 1.950e-11 
1932 KSP Residual norm 1.965e-11 
1933 KSP Residual norm 1.975e-11 
1934 KSP Residual norm 1.980e-11 
1935 KSP Residual norm 1.977e-11 
1936 KSP Residual norm 1.968e-11 
1937 KSP Residual norm 1.954e-11 
1938 KSP Residual norm 1.937e-11 
1939 KSP Residual norm 1.918e-11 
1940 KSP Residual norm 1.895e-11 
1941 KSP Residual norm 1.872e-11 
1942 KSP Residual norm 1.851e-11 
1943 KSP Residual norm 1.833e-11 
1944 KSP Residual norm 1.817e-11 
1945 KSP Residual norm 1.802e-11 
1946 KSP Residual norm 1.782e-11 
1947 KSP Residual norm 1.757e-11 
1948 KSP Residual norm 1.727e-11 
1949 KSP Residual norm 1.699e-11 
1950 KSP Residual norm 1.676e-11 
1951 KSP Residual norm 1.660e-11 
1952 KSP Residual norm 1.650e-11 
1953 KSP Residual norm 1.639e-11 
1954 KSP Residual norm 1.625e-11 
1955 KSP Residual norm 1.609e-11 
1956 KSP Residual norm 1.593e-11 
1957 KSP Residual norm 1.580e-11 
1958 KSP Residual norm 1.573e-11 
1959 KSP Residual norm 1.570e-11 
1960 KSP Residual norm 1.567e-11 
1961 KSP Residual norm 1.563e-11 
1962 KSP Residual norm 1.558e-11 
1963 KSP Residual norm 1.556e-11 
1964 KSP Residual norm 1.559e-11 
1965 KSP Residual norm 1.566e-11 
1966 KSP Residual norm 1.576e-11 
1967 KSP Residual norm 1.586e-11 
1968 KSP Residual norm 1.595e-11 
1969 KSP Residual norm 1.600e-11 
1970 KSP Residual norm 1.601e-11 
1971 KSP Residual norm 1.597e-11 
1972 KSP Residual norm 1.588e-11 
1973 KSP Residual norm 1.574e-11 
1974 KSP Residual norm 1.555e-11 
1975 KSP Residual norm 1.534e-11 
1976 KSP Residual norm 1.512e-11 
1977 KSP Residual norm 1.490e-11 
1978 KSP Residual norm 1.469e-11 
1979 KSP Residual norm 1.446e-11 
1980 KSP Residual norm 1.423e-11 
1981 KSP Residual norm 1.401e-11 
1982 KSP Residual norm 1.381e-11 
1983 KSP Residual norm 1.366e-11 
1984 KSP Residual norm 1.354e-11 
1985 KSP Residual norm 1.346e-11 
1986 KSP Residual norm 1.340e-11 
1987 KSP Residual norm 1.337e-11 
1988 KSP Residual norm 1.339e-11 
1989 KSP Residual norm 1.346e-11 
1990 KSP Residual norm 1.360e-11 
1991 KSP Residual norm 1.378e-11 
1992 KSP Residual norm 1.399e-11 
1993 KSP Residual norm 1.421e-11 
1994 KSP Residual norm 1.445e-11 
1995 KSP Residual norm 1.471e-11 
1996 KSP Residual norm 1.502e-11 
1997 KSP Residual norm 1.538e-11 
1998 KSP Residual norm 1.579e-11 
1999 KSP Residual norm 1.622e-11 
2000 KSP Residual norm 1.664e-11 
2001 KSP Residual norm 1.705e-11 
2002 KSP Residual norm 1.741e-11 
2003 KSP Residual norm 1.774e-11 
2004 KSP Residual norm 1.801e-11 
2005 KSP Residual norm 1.823e-11 
2006 KSP Residual norm 1.839e-11 
2007 KSP Residual norm 1.846e-11 
2008 KSP Residual norm 1.846e-11 
2009 KSP Residual norm 1.837e-11 
2010 KSP Residual norm 1.821e-11 
2011 KSP Residual norm 1.798e-11 
2012 KSP Residual norm 1.770e-11 
2013 KSP Residual norm 1.739e-11 
2014 KSP Residual norm 1.709e-11 
2015 KSP Residual norm 1.680e-11 
2016 KSP Residual norm 1.654e-11 
2017 KSP Residual norm 1.629e-11 
2018 KSP Residual norm 1.603e-11 
2019 KSP Residual norm 1.576e-11 
2020 KSP Residual norm 1.546e-11 
2021 KSP Residual norm 1.517e-11 
2022 KSP Residual norm 1.491e-11 
2023 KSP Residual norm 1.469e-11 
2024 KSP Residual norm 1.451e-11 
2025 KSP Residual norm 1.437e-11 
2026 KSP Residual norm 1.424e-11 
2027 KSP Residual norm 1.412e-11 
2028 KSP Residual norm 1.401e-11 
2029 KSP Residual norm 1.391e-11 
2030 KSP Residual norm 1.384e-11 
2031 KSP Residual norm 1.377e-11 
2032 KSP Residual norm 1.371e-11 
2033 KSP Residual norm 1.365e-11 
2034 KSP Residual norm 1.357e-11 
2035 KSP Residual norm 1.350e-11 
2036 KSP Residual norm 1.343e-11 
2037 KSP Residual norm 1.338e-11 
2038 KSP Residual norm 1.334e-11 
2039 KSP Residual norm 1.332e-11 
2040 KSP Residual norm 1.334e-11 
2041 KSP Residual norm 1.341e-11 
2042 KSP Residual norm 1.355e-11 
2043 KSP Residual norm 1.376e-11 
2044 KSP Residual norm 1.404e-11 
2045 KSP Residual norm 1.434e-11 
2046 KSP Residual norm 1.465e-11 
2047 KSP Residual norm 1.495e-11 
2048 KSP Residual norm 1.525e-11 
2049 KSP Residual norm 1.559e-11 
2050 KSP Residual norm 1.596e-11 
2051 KSP Residual norm 1.634e-11 
2052 KSP Residual norm 1.670e-11 
2053 KSP Residual norm 1.697e-11 
2054 KSP Residual norm 1.712e-11 
2055 KSP Residual norm 1.716e-11 
2056 KSP Residual norm 1.711e-11 
2057 KSP Residual norm 1.702e-11 
2058 KSP Residual norm 1.692e-11 
2059 KSP Residual norm 1.680e-11 
2060 KSP Residual norm 1.662e-11 
2061 KSP Residual norm 1.637e-11 
2062 KSP Residual norm 1.602e-11 
2063 KSP Residual norm 1.560e-11 
2064 KSP Residual norm 1.515e-11 
2065 KSP Residual norm 1.470e-11 
2066 KSP Residual norm 1.428e-11 
2067 KSP Residual norm 1.388e-11 
2068 KSP Residual norm 1.351e-11 
2069 KSP Residual norm 1.316e-11 
2070 KSP Residual norm 1.283e-11 
2071 KSP Residual norm 1.252e-11 
2072 KSP Residual norm 1.224e-11 
2073 KSP Residual norm 1.200e-11 
2074 KSP Residual norm 1.178e-11 
2075 KSP Residual norm 1.159e-11 
2076 KSP Residual norm 1.141e-11 
2077 KSP Residual norm 1.126e-11 
2078 KSP Residual norm 1.113e-11 
2079 KSP Residual norm 1.103e-11 
2080 KSP Residual norm 1.094e-11 
2081 KSP Residual norm 1.086e-11 
2082 KSP Residual norm 1.079e-11 
2083 KSP Residual norm 1.073e-11 
2084 KSP Residual norm 1.069e-11 
2085 KSP Residual norm 1.067e-11 
2086 KSP Residual norm 1.068e-11 
2087 KSP Residual norm 1.072e-11 
2088 KSP Residual norm 1.077e-11 
2089 KSP Residual norm 1.082e-11 
2090 KSP Residual norm 1.085e-11 
2091 KSP Residual norm 1.089e-11 
2092 KSP Residual norm 1.094e-11 
2093 KSP Residual norm 1.102e-11 
2094 KSP Residual norm 1.114e-11 
2095 KSP Residual norm 1.128e-11 
2096 KSP Residual norm 1.144e-11 
2097 KSP Residual norm 1.161e-11 
2098 KSP Residual norm 1.176e-11 
2099 KSP Residual norm 1.190e-11 
2100 KSP Residual norm 1.205e-11 
2101 KSP Residual norm 1.221e-11 
2102 KSP Residual norm 1.238e-11 
2103 KSP Residual norm 1.258e-11 
2104 KSP Residual norm 1.280e-11 
2105 KSP Residual norm 1.303e-11 
2106 KSP Residual norm 1.329e-11 
2107 KSP Residual norm 1.357e-11 
2108 KSP Residual norm 1.387e-11 
2109 KSP Residual norm 1.418e-11 
2110 KSP Residual norm 1.449e-11 
2111 KSP Residual norm 1.478e-11 
2112 KSP Residual norm 1.504e-11 
2113 KSP Residual norm 1.527e-11 
2114 KSP Residual norm 1.548e-11 
2115 KSP Residual norm 1.564e-11 
2116 KSP Residual norm 1.577e-11 
2117 KSP Residual norm 1.585e-11 
2118 KSP Residual norm 1.586e-11 
2119 KSP Residual norm 1.580e-11 
2120 KSP Residual norm 1.570e-11 
2121 KSP Residual norm 1.557e-11 
2122 KSP Residual norm 1.542e-11 
2123 KSP Residual norm 1.528e-11 
2124 KSP Residual norm 1.514e-11 
2125 KSP Residual norm 1.499e-11 
2126 KSP Residual norm 1.483e-11 
2127 KSP Residual norm 1.465e-11 
2128 KSP Residual norm 1.446e-11 
2129 KSP Residual norm 1.427e-11 
2130 KSP Residual norm 1.408e-11 
2131 KSP Residual norm 1.391e-11 
2132 KSP Residual norm 1.375e-11 
2133 KSP Residual norm 1.361e-11 
2134 KSP Residual norm 1.349e-11 
2135 KSP Residual norm 1.337e-11 
2136 KSP Residual norm 1.327e-11 
2137 KSP Residual norm 1.318e-11 
2138 KSP Residual norm 1.309e-11 
2139 KSP Residual norm 1.299e-11 
2140 KSP Residual norm 1.289e-11 
2141 KSP Residual norm 1.278e-11 
2142 KSP Residual norm 1.268e-11 
2143 KSP Residual norm 1.259e-11 
2144 KSP Residual norm 1.252e-11 
2145 KSP Residual norm 1.247e-11 
2146 KSP Residual norm 1.244e-11 
2147 KSP Residual norm 1.242e-11 
2148 KSP Residual norm 1.241e-11 
2149 KSP Residual norm 1.242e-11 
2150 KSP Residual norm 1.247e-11 
2151 KSP Residual norm 1.257e-11 
2152 KSP Residual norm 1.272e-11 
2153 KSP Residual norm 1.291e-11 
2154 KSP Residual norm 1.315e-11 
2155 KSP Residual norm 1.343e-11 
2156 KSP Residual norm 1.374e-11 
2157 KSP Residual norm 1.408e-11 
2158 KSP Residual norm 1.448e-11 
2159 KSP Residual norm 1.495e-11 
2160 KSP Residual norm 1.549e-11 
2161 KSP Residual norm 1.611e-11 
2162 KSP Residual norm 1.678e-11 
2163 KSP Residual norm 1.748e-11 
2164 KSP Residual norm 1.820e-11 
2165 KSP Residual norm 1.893e-11 
2166 KSP Residual norm 1.966e-11 
2167 KSP Residual norm 2.041e-11 
2168 KSP Residual norm 2.119e-11 
2169 KSP Residual norm 2.202e-11 
2170 KSP Residual norm 2.287e-11 
2171 KSP Residual norm 2.373e-11 
2172 KSP Residual norm 2.457e-11 
2173 KSP Residual norm 2.537e-11 
2174 KSP Residual norm 2.612e-11 
2175 KSP Residual norm 2.681e-11 
2176 KSP Residual norm 2.745e-11 
2177 KSP Residual norm 2.804e-11 
2178 KSP Residual norm 2.857e-11 
2179 KSP Residual norm 2.903e-11 
2180 KSP Residual norm 2.941e-11 
2181 KSP Residual norm 2.973e-11 
2182 KSP Residual norm 2.998e-11 
2183 KSP Residual norm 3.019e-11 
2184 KSP Residual norm 3.037e-11 
2185 KSP Residual norm 3.053e-11 
2186 KSP Residual norm 3.067e-11 
2187 KSP Residual norm 3.077e-11 
2188 KSP Residual norm 3.082e-11 
2189 KSP Residual norm 3.082e-11 
2190 KSP Residual norm 3.076e-11 
2191 KSP Residual norm 3.067e-11 
2192 KSP Residual norm 3.059e-11 
2193 KSP Residual norm 3.053e-11 
2194 KSP Residual norm 3.052e-11 
2195 KSP Residual norm 3.057e-11 
2196 KSP Residual norm 3.068e-11 
2197 KSP Residual norm 3.082e-11 
2198 KSP Residual norm 3.101e-11 
2199 KSP Residual norm 3.122e-11 
2200 KSP Residual norm 3.144e-11 
2201 KSP Residual norm 3.169e-11 
2202 KSP Residual norm 3.194e-11 
[...]
4440 KSP Residual norm 1.095e-10 
4441 KSP Residual norm 1.100e-10 
4442 KSP Residual norm 1.105e-10 
4443 KSP Residual norm 1.110e-10 
4444 KSP Residual norm 1.115e-10 
4445 KSP Residual norm 1.119e-10 
4446 KSP Residual norm 1.123e-10 
4447 KSP Residual norm 1.127e-10 
4448 KSP Residual norm 1.131e-10 
4449 KSP Residual norm 1.135e-10 
4450 KSP Residual norm 1.139e-10 
4451 KSP Residual norm 1.142e-10 
4452 KSP Residual norm 1.146e-10 
4453 KSP Residual norm 1.150e-10 
4454 KSP Residual norm 1.154e-10 
4455 KSP Residual norm 1.158e-10 
4456 KSP Residual norm 1.162e-10 
4457 KSP Residual norm 1.166e-10 
4458 KSP Residual norm 1.169e-10 
4459 KSP Residual norm 1.173e-10 
4460 KSP Residual norm 1.176e-10 
4461 KSP Residual norm 1.179e-10 
4462 KSP Residual norm 1.182e-10 
4463 KSP Residual norm 1.184e-10 
4464 KSP Residual norm 1.186e-10 
4465 KSP Residual norm 1.187e-10 
4466 KSP Residual norm 1.188e-10 
4467 KSP Residual norm 1.188e-10 
4468 KSP Residual norm 1.188e-10 
4469 KSP Residual norm 1.187e-10 
4470 KSP Residual norm 1.187e-10 
4471 KSP Residual norm 1.186e-10 
4472 KSP Residual norm 1.186e-10 
4473 KSP Residual norm 1.185e-10 
4474 KSP Residual norm 1.184e-10 
4475 KSP Residual norm 1.184e-10 
4476 KSP Residual norm 1.183e-10 
4477 KSP Residual norm 1.183e-10 
4478 KSP Residual norm 1.182e-10 
4479 KSP Residual norm 1.181e-10 
4480 KSP Residual norm 1.180e-10 
4481 KSP Residual norm 1.178e-10 
4482 KSP Residual norm 1.176e-10 
4483 KSP Residual norm 1.174e-10 
4484 KSP Residual norm 1.171e-10 
4485 KSP Residual norm 1.168e-10 
4486 KSP Residual norm 1.165e-10 
4487 KSP Residual norm 1.161e-10 
4488 KSP Residual norm 1.157e-10 
4489 KSP Residual norm 1.152e-10 
4490 KSP Residual norm 1.148e-10 
4491 KSP Residual norm 1.144e-10 
4492 KSP Residual norm 1.140e-10 
4493 KSP Residual norm 1.136e-10 
4494 KSP Residual norm 1.132e-10 
4495 KSP Residual norm 1.129e-10 
4496 KSP Residual norm 1.126e-10 
4497 KSP Residual norm 1.123e-10 
4498 KSP Residual norm 1.120e-10 
4499 KSP Residual norm 1.116e-10 
4500 KSP Residual norm 1.113e-10 
4501 KSP Residual norm 1.110e-10 
4502 KSP Residual norm 1.106e-10 
4503 KSP Residual norm 1.102e-10 
4504 KSP Residual norm 1.098e-10 
4505 KSP Residual norm 1.093e-10 
4506 KSP Residual norm 1.089e-10 
4507 KSP Residual norm 1.083e-10 
4508 KSP Residual norm 1.078e-10 
4509 KSP Residual norm 1.073e-10 
4510 KSP Residual norm 1.067e-10 
4511 KSP Residual norm 1.062e-10 
4512 KSP Residual norm 1.057e-10 
4513 KSP Residual norm 1.052e-10 
4514 KSP Residual norm 1.047e-10 
4515 KSP Residual norm 1.042e-10 
4516 KSP Residual norm 1.038e-10 
4517 KSP Residual norm 1.033e-10 
4518 KSP Residual norm 1.029e-10 
4519 KSP Residual norm 1.025e-10 
4520 KSP Residual norm 1.020e-10 
4521 KSP Residual norm 1.016e-10 
4522 KSP Residual norm 1.011e-10 
4523 KSP Residual norm 1.006e-10 
4524 KSP Residual norm 1.001e-10 
4525 KSP Residual norm 9.963e-11 
4526 KSP Residual norm 9.909e-11 
4527 KSP Residual norm 9.853e-11 
4528 KSP Residual norm 9.796e-11 
4529 KSP Residual norm 9.738e-11 
4530 KSP Residual norm 9.679e-11 
4531 KSP Residual norm 9.620e-11 
4532 KSP Residual norm 9.561e-11 
4533 KSP Residual norm 9.501e-11 
4534 KSP Residual norm 9.442e-11 
4535 KSP Residual norm 9.383e-11 
4536 KSP Residual norm 9.324e-11 
4537 KSP Residual norm 9.266e-11 
4538 KSP Residual norm 9.207e-11 
4539 KSP Residual norm 9.148e-11 
4540 KSP Residual norm 9.089e-11 
4541 KSP Residual norm 9.029e-11 
4542 KSP Residual norm 8.968e-11 
4543 KSP Residual norm 8.908e-11 
4544 KSP Residual norm 8.847e-11 
4545 KSP Residual norm 8.786e-11 
4546 KSP Residual norm 8.726e-11 
4547 KSP Residual norm 8.666e-11 
4548 KSP Residual norm 8.608e-11 
4549 KSP Residual norm 8.550e-11 
4550 KSP Residual norm 8.494e-11 
4551 KSP Residual norm 8.440e-11 
4552 KSP Residual norm 8.386e-11 
4553 KSP Residual norm 8.335e-11 
4554 KSP Residual norm 8.284e-11 
4555 KSP Residual norm 8.233e-11 
4556 KSP Residual norm 8.184e-11 
4557 KSP Residual norm 8.134e-11 
4558 KSP Residual norm 8.084e-11 
4559 KSP Residual norm 8.034e-11 
4560 KSP Residual norm 7.983e-11 
4561 KSP Residual norm 7.931e-11 
4562 KSP Residual norm 7.880e-11 
4563 KSP Residual norm 7.828e-11 
4564 KSP Residual norm 7.777e-11 
4565 KSP Residual norm 7.726e-11 
4566 KSP Residual norm 7.677e-11 
4567 KSP Residual norm 7.630e-11 
4568 KSP Residual norm 7.585e-11 
4569 KSP Residual norm 7.543e-11 
4570 KSP Residual norm 7.504e-11 
4571 KSP Residual norm 7.468e-11 
4572 KSP Residual norm 7.435e-11 
4573 KSP Residual norm 7.406e-11 
4574 KSP Residual norm 7.378e-11 
4575 KSP Residual norm 7.352e-11 
4576 KSP Residual norm 7.328e-11 
4577 KSP Residual norm 7.304e-11 
4578 KSP Residual norm 7.280e-11 
4579 KSP Residual norm 7.256e-11 
4580 KSP Residual norm 7.231e-11 
4581 KSP Residual norm 7.205e-11 
4582 KSP Residual norm 7.177e-11 
4583 KSP Residual norm 7.149e-11 
4584 KSP Residual norm 7.119e-11 
4585 KSP Residual norm 7.089e-11 
4586 KSP Residual norm 7.059e-11 
4587 KSP Residual norm 7.029e-11 
4588 KSP Residual norm 7.001e-11 
4589 KSP Residual norm 6.974e-11 
4590 KSP Residual norm 6.948e-11 
4591 KSP Residual norm 6.926e-11 
4592 KSP Residual norm 6.906e-11 
4593 KSP Residual norm 6.888e-11 
4594 KSP Residual norm 6.873e-11 
4595 KSP Residual norm 6.859e-11 
4596 KSP Residual norm 6.848e-11 
4597 KSP Residual norm 6.837e-11 
4598 KSP Residual norm 6.826e-11 
4599 KSP Residual norm 6.816e-11 
4600 KSP Residual norm 6.805e-11 
4601 KSP Residual norm 6.793e-11 
4602 KSP Residual norm 6.779e-11 
4603 KSP Residual norm 6.763e-11 
4604 KSP Residual norm 6.746e-11 
4605 KSP Residual norm 6.728e-11 
4606 KSP Residual norm 6.708e-11 
4607 KSP Residual norm 6.686e-11 
4608 KSP Residual norm 6.665e-11 
4609 KSP Residual norm 6.643e-11 
4610 KSP Residual norm 6.621e-11 
4611 KSP Residual norm 6.599e-11 
4612 KSP Residual norm 6.579e-11 
4613 KSP Residual norm 6.559e-11 
4614 KSP Residual norm 6.540e-11 
4615 KSP Residual norm 6.523e-11 
4616 KSP Residual norm 6.506e-11 
4617 KSP Residual norm 6.490e-11 
4618 KSP Residual norm 6.475e-11 
4619 KSP Residual norm 6.459e-11 
4620 KSP Residual norm 6.444e-11 
4621 KSP Residual norm 6.428e-11 
4622 KSP Residual norm 6.411e-11 
4623 KSP Residual norm 6.393e-11 
4624 KSP Residual norm 6.375e-11 
4625 KSP Residual norm 6.355e-11 
4626 KSP Residual norm 6.335e-11 
4627 KSP Residual norm 6.314e-11 
4628 KSP Residual norm 6.292e-11 
4629 KSP Residual norm 6.269e-11 
4630 KSP Residual norm 6.246e-11 
4631 KSP Residual norm 6.223e-11 
4632 KSP Residual norm 6.199e-11 
4633 KSP Residual norm 6.176e-11 
4634 KSP Residual norm 6.152e-11 
4635 KSP Residual norm 6.128e-11 
4636 KSP Residual norm 6.104e-11 
4637 KSP Residual norm 6.080e-11 
4638 KSP Residual norm 6.055e-11 
4639 KSP Residual norm 6.031e-11 
4640 KSP Residual norm 6.006e-11 
4641 KSP Residual norm 5.980e-11 
4642 KSP Residual norm 5.955e-11 
4643 KSP Residual norm 5.929e-11 
4644 KSP Residual norm 5.904e-11 
4645 KSP Residual norm 5.878e-11 
4646 KSP Residual norm 5.853e-11 
4647 KSP Residual norm 5.828e-11 
4648 KSP Residual norm 5.803e-11 
4649 KSP Residual norm 5.779e-11 
4650 KSP Residual norm 5.756e-11 
4651 KSP Residual norm 5.732e-11 
4652 KSP Residual norm 5.710e-11 
4653 KSP Residual norm 5.687e-11 
4654 KSP Residual norm 5.665e-11 
4655 KSP Residual norm 5.642e-11 
4656 KSP Residual norm 5.620e-11 
4657 KSP Residual norm 5.596e-11 
4658 KSP Residual norm 5.572e-11 
4659 KSP Residual norm 5.548e-11 
4660 KSP Residual norm 5.522e-11 
4661 KSP Residual norm 5.496e-11 
4662 KSP Residual norm 5.469e-11 
4663 KSP Residual norm 5.442e-11 
4664 KSP Residual norm 5.414e-11 
4665 KSP Residual norm 5.386e-11 
4666 KSP Residual norm 5.358e-11 
4667 KSP Residual norm 5.330e-11 
4668 KSP Residual norm 5.303e-11 
4669 KSP Residual norm 5.277e-11 
4670 KSP Residual norm 5.251e-11 
4671 KSP Residual norm 5.226e-11 
4672 KSP Residual norm 5.202e-11 
4673 KSP Residual norm 5.178e-11 
4674 KSP Residual norm 5.155e-11 
4675 KSP Residual norm 5.132e-11 
4676 KSP Residual norm 5.109e-11 
4677 KSP Residual norm 5.086e-11 
4678 KSP Residual norm 5.063e-11 
4679 KSP Residual norm 5.039e-11 
4680 KSP Residual norm 5.015e-11 
4681 KSP Residual norm 4.990e-11 
4682 KSP Residual norm 4.964e-11 
4683 KSP Residual norm 4.937e-11 
4684 KSP Residual norm 4.910e-11 
4685 KSP Residual norm 4.882e-11 
4686 KSP Residual norm 4.855e-11 
4687 KSP Residual norm 4.827e-11 
4688 KSP Residual norm 4.800e-11 
4689 KSP Residual norm 4.773e-11 
4690 KSP Residual norm 4.747e-11 
4691 KSP Residual norm 4.722e-11 
4692 KSP Residual norm 4.698e-11 
4693 KSP Residual norm 4.675e-11 
4694 KSP Residual norm 4.652e-11 
4695 KSP Residual norm 4.631e-11 
4696 KSP Residual norm 4.611e-11 
4697 KSP Residual norm 4.591e-11 
4698 KSP Residual norm 4.572e-11 
4699 KSP Residual norm 4.553e-11 
4700 KSP Residual norm 4.535e-11 
4701 KSP Residual norm 4.516e-11 
4702 KSP Residual norm 4.498e-11 
4703 KSP Residual norm 4.480e-11 
4704 KSP Residual norm 4.462e-11 
4705 KSP Residual norm 4.443e-11 
4706 KSP Residual norm 4.425e-11 
4707 KSP Residual norm 4.407e-11 
4708 KSP Residual norm 4.388e-11 
4709 KSP Residual norm 4.369e-11 
4710 KSP Residual norm 4.351e-11 
4711 KSP Residual norm 4.332e-11 
4712 KSP Residual norm 4.314e-11 
4713 KSP Residual norm 4.295e-11 
4714 KSP Residual norm 4.277e-11 
4715 KSP Residual norm 4.258e-11 
4716 KSP Residual norm 4.240e-11 
4717 KSP Residual norm 4.221e-11 
4718 KSP Residual norm 4.203e-11 
4719 KSP Residual norm 4.184e-11 
4720 KSP Residual norm 4.166e-11 
4721 KSP Residual norm 4.148e-11 
4722 KSP Residual norm 4.131e-11 
4723 KSP Residual norm 4.114e-11 
4724 KSP Residual norm 4.097e-11 
4725 KSP Residual norm 4.081e-11 
4726 KSP Residual norm 4.065e-11 
4727 KSP Residual norm 4.051e-11 
4728 KSP Residual norm 4.036e-11 
4729 KSP Residual norm 4.023e-11 
4730 KSP Residual norm 4.010e-11 
4731 KSP Residual norm 3.997e-11 
4732 KSP Residual norm 3.984e-11 
4733 KSP Residual norm 3.972e-11 
4734 KSP Residual norm 3.959e-11 
4735 KSP Residual norm 3.947e-11 
4736 KSP Residual norm 3.934e-11 
4737 KSP Residual norm 3.920e-11 
4738 KSP Residual norm 3.907e-11 
4739 KSP Residual norm 3.893e-11 
4740 KSP Residual norm 3.878e-11 
4741 KSP Residual norm 3.864e-11 
4742 KSP Residual norm 3.849e-11 
4743 KSP Residual norm 3.835e-11 
4744 KSP Residual norm 3.821e-11 
4745 KSP Residual norm 3.808e-11 
4746 KSP Residual norm 3.796e-11 
4747 KSP Residual norm 3.784e-11 
4748 KSP Residual norm 3.774e-11 
4749 KSP Residual norm 3.766e-11 
4750 KSP Residual norm 3.758e-11 
4751 KSP Residual norm 3.752e-11 
4752 KSP Residual norm 3.747e-11 
4753 KSP Residual norm 3.742e-11 
4754 KSP Residual norm 3.739e-11 
4755 KSP Residual norm 3.735e-11 
4756 KSP Residual norm 3.732e-11 
4757 KSP Residual norm 3.729e-11 
4758 KSP Residual norm 3.725e-11 
4759 KSP Residual norm 3.720e-11 
4760 KSP Residual norm 3.715e-11 
4761 KSP Residual norm 3.708e-11 
4762 KSP Residual norm 3.701e-11 
4763 KSP Residual norm 3.692e-11 
4764 KSP Residual norm 3.683e-11 
4765 KSP Residual norm 3.673e-11 
4766 KSP Residual norm 3.662e-11 
4767 KSP Residual norm 3.651e-11 
4768 KSP Residual norm 3.640e-11 
4769 KSP Residual norm 3.629e-11 
4770 KSP Residual norm 3.619e-11 
4771 KSP Residual norm 3.608e-11 
4772 KSP Residual norm 3.599e-11 
4773 KSP Residual norm 3.590e-11 
4774 KSP Residual norm 3.581e-11 
4775 KSP Residual norm 3.573e-11 
4776 KSP Residual norm 3.566e-11 
4777 KSP Residual norm 3.559e-11 
4778 KSP Residual norm 3.552e-11 
4779 KSP Residual norm 3.544e-11 
4780 KSP Residual norm 3.537e-11 
4781 KSP Residual norm 3.530e-11 
4782 KSP Residual norm 3.522e-11 
4783 KSP Residual norm 3.514e-11 
4784 KSP Residual norm 3.505e-11 
4785 KSP Residual norm 3.496e-11 
4786 KSP Residual norm 3.486e-11 
4787 KSP Residual norm 3.477e-11 
4788 KSP Residual norm 3.467e-11 
4789 KSP Residual norm 3.457e-11 
4790 KSP Residual norm 3.448e-11 
4791 KSP Residual norm 3.438e-11 
4792 KSP Residual norm 3.429e-11 
4793 KSP Residual norm 3.420e-11 
4794 KSP Residual norm 3.411e-11 
4795 KSP Residual norm 3.402e-11 
4796 KSP Residual norm 3.394e-11 
4797 KSP Residual norm 3.386e-11 
4798 KSP Residual norm 3.378e-11 
4799 KSP Residual norm 3.371e-11 
4800 KSP Residual norm 3.363e-11 
4801 KSP Residual norm 3.355e-11 
4802 KSP Residual norm 3.348e-11 
4803 KSP Residual norm 3.340e-11 
4804 KSP Residual norm 3.333e-11 
4805 KSP Residual norm 3.326e-11 
4806 KSP Residual norm 3.318e-11 
4807 KSP Residual norm 3.312e-11 
4808 KSP Residual norm 3.305e-11 
4809 KSP Residual norm 3.299e-11 
4810 KSP Residual norm 3.293e-11 
4811 KSP Residual norm 3.288e-11 
4812 KSP Residual norm 3.283e-11 
4813 KSP Residual norm 3.279e-11 
4814 KSP Residual norm 3.275e-11 
4815 KSP Residual norm 3.272e-11 
4816 KSP Residual norm 3.269e-11 
4817 KSP Residual norm 3.266e-11 
4818 KSP Residual norm 3.264e-11 
4819 KSP Residual norm 3.261e-11 
4820 KSP Residual norm 3.259e-11 
4821 KSP Residual norm 3.258e-11 
4822 KSP Residual norm 3.256e-11 
4823 KSP Residual norm 3.255e-11 
4824 KSP Residual norm 3.255e-11 
4825 KSP Residual norm 3.255e-11 
4826 KSP Residual norm 3.256e-11 
4827 KSP Residual norm 3.258e-11 
4828 KSP Residual norm 3.260e-11 
4829 KSP Residual norm 3.264e-11 
4830 KSP Residual norm 3.269e-11 
4831 KSP Residual norm 3.275e-11 
4832 KSP Residual norm 3.282e-11 
4833 KSP Residual norm 3.289e-11 
4834 KSP Residual norm 3.298e-11 
4835 KSP Residual norm 3.306e-11 
4836 KSP Residual norm 3.316e-11 
4837 KSP Residual norm 3.325e-11 
4838 KSP Residual norm 3.333e-11 
4839 KSP Residual norm 3.342e-11 
4840 KSP Residual norm 3.350e-11 
4841 KSP Residual norm 3.357e-11 
4842 KSP Residual norm 3.363e-11 
4843 KSP Residual norm 3.369e-11 
4844 KSP Residual norm 3.374e-11 
4845 KSP Residual norm 3.378e-11 
4846 KSP Residual norm 3.382e-11 
4847 KSP Residual norm 3.386e-11 
4848 KSP Residual norm 3.390e-11 
4849 KSP Residual norm 3.395e-11 
4850 KSP Residual norm 3.401e-11 
4851 KSP Residual norm 3.407e-11 
4852 KSP Residual norm 3.416e-11 
4853 KSP Residual norm 3.425e-11 
4854 KSP Residual norm 3.436e-11 
4855 KSP Residual norm 3.449e-11 
4856 KSP Residual norm 3.463e-11 
4857 KSP Residual norm 3.478e-11 
4858 KSP Residual norm 3.494e-11 
4859 KSP Residual norm 3.511e-11 
4860 KSP Residual norm 3.528e-11 
4861 KSP Residual norm 3.546e-11 
4862 KSP Residual norm 3.563e-11 
4863 KSP Residual norm 3.579e-11 
4864 KSP Residual norm 3.595e-11 
4865 KSP Residual norm 3.610e-11 
4866 KSP Residual norm 3.623e-11 
4867 KSP Residual norm 3.636e-11 
4868 KSP Residual norm 3.648e-11 
4869 KSP Residual norm 3.660e-11 
4870 KSP Residual norm 3.671e-11 
4871 KSP Residual norm 3.682e-11 
4872 KSP Residual norm 3.693e-11 
4873 KSP Residual norm 3.705e-11 
4874 KSP Residual norm 3.717e-11 
4875 KSP Residual norm 3.730e-11 
4876 KSP Residual norm 3.745e-11 
4877 KSP Residual norm 3.760e-11 
4878 KSP Residual norm 3.777e-11 
4879 KSP Residual norm 3.794e-11 
4880 KSP Residual norm 3.813e-11 
4881 KSP Residual norm 3.832e-11 
4882 KSP Residual norm 3.852e-11 
4883 KSP Residual norm 3.871e-11 
4884 KSP Residual norm 3.891e-11 
4885 KSP Residual norm 3.911e-11 
4886 KSP Residual norm 3.930e-11 
4887 KSP Residual norm 3.948e-11 
4888 KSP Residual norm 3.966e-11 
4889 KSP Residual norm 3.983e-11 
4890 KSP Residual norm 4.000e-11 
4891 KSP Residual norm 4.016e-11 
4892 KSP Residual norm 4.032e-11 
4893 KSP Residual norm 4.047e-11 
4894 KSP Residual norm 4.063e-11 
4895 KSP Residual norm 4.079e-11 
4896 KSP Residual norm 4.096e-11 
4897 KSP Residual norm 4.113e-11 
4898 KSP Residual norm 4.132e-11 
4899 KSP Residual norm 4.151e-11 
4900 KSP Residual norm 4.170e-11 
4901 KSP Residual norm 4.191e-11 
4902 KSP Residual norm 4.212e-11 
4903 KSP Residual norm 4.234e-11 
4904 KSP Residual norm 4.257e-11 
4905 KSP Residual norm 4.279e-11 
4906 KSP Residual norm 4.302e-11 
4907 KSP Residual norm 4.325e-11 
4908 KSP Residual norm 4.347e-11 
4909 KSP Residual norm 4.369e-11 
4910 KSP Residual norm 4.391e-11 
4911 KSP Residual norm 4.412e-11 
4912 KSP Residual norm 4.433e-11 
4913 KSP Residual norm 4.454e-11 
4914 KSP Residual norm 4.475e-11 
4915 KSP Residual norm 4.495e-11 
4916 KSP Residual norm 4.515e-11 
4917 KSP Residual norm 4.535e-11 
4918 KSP Residual norm 4.555e-11 
4919 KSP Residual norm 4.576e-11 
4920 KSP Residual norm 4.596e-11 
4921 KSP Residual norm 4.616e-11 
4922 KSP Residual norm 4.636e-11 
4923 KSP Residual norm 4.656e-11 
4924 KSP Residual norm 4.676e-11 
4925 KSP Residual norm 4.695e-11 
4926 KSP Residual norm 4.714e-11 
4927 KSP Residual norm 4.732e-11 
4928 KSP Residual norm 4.750e-11 
4929 KSP Residual norm 4.767e-11 
4930 KSP Residual norm 4.783e-11 
4931 KSP Residual norm 4.799e-11 
4932 KSP Residual norm 4.815e-11 
4933 KSP Residual norm 4.830e-11 
4934 KSP Residual norm 4.845e-11 
4935 KSP Residual norm 4.860e-11 
4936 KSP Residual norm 4.875e-11 
4937 KSP Residual norm 4.891e-11 
4938 KSP Residual norm 4.907e-11 
4939 KSP Residual norm 4.924e-11 
4940 KSP Residual norm 4.942e-11 
4941 KSP Residual norm 4.960e-11 
4942 KSP Residual norm 4.978e-11 
4943 KSP Residual norm 4.997e-11 
4944 KSP Residual norm 5.016e-11 
4945 KSP Residual norm 5.035e-11 
4946 KSP Residual norm 5.053e-11 
4947 KSP Residual norm 5.071e-11 
4948 KSP Residual norm 5.089e-11 
4949 KSP Residual norm 5.106e-11 
4950 KSP Residual norm 5.121e-11 
4951 KSP Residual norm 5.136e-11 
4952 KSP Residual norm 5.150e-11 
4953 KSP Residual norm 5.163e-11 
4954 KSP Residual norm 5.175e-11 
4955 KSP Residual norm 5.186e-11 
4956 KSP Residual norm 5.197e-11 
4957 KSP Residual norm 5.208e-11 
4958 KSP Residual norm 5.219e-11 
4959 KSP Residual norm 5.230e-11 
4960 KSP Residual norm 5.241e-11 
4961 KSP Residual norm 5.253e-11 
4962 KSP Residual norm 5.265e-11 
4963 KSP Residual norm 5.278e-11 
4964 KSP Residual norm 5.291e-11 
4965 KSP Residual norm 5.305e-11 
4966 KSP Residual norm 5.319e-11 
4967 KSP Residual norm 5.333e-11 
4968 KSP Residual norm 5.347e-11 
4969 KSP Residual norm 5.360e-11 
4970 KSP Residual norm 5.373e-11 
4971 KSP Residual norm 5.385e-11 
4972 KSP Residual norm 5.396e-11 
4973 KSP Residual norm 5.407e-11 
4974 KSP Residual norm 5.416e-11 
4975 KSP Residual norm 5.425e-11 
4976 KSP Residual norm 5.433e-11 
4977 KSP Residual norm 5.440e-11 
4978 KSP Residual norm 5.447e-11 
4979 KSP Residual norm 5.455e-11 
4980 KSP Residual norm 5.462e-11 
4981 KSP Residual norm 5.469e-11 
4982 KSP Residual norm 5.477e-11 
4983 KSP Residual norm 5.485e-11 
4984 KSP Residual norm 5.494e-11 
4985 KSP Residual norm 5.504e-11 
4986 KSP Residual norm 5.514e-11 
4987 KSP Residual norm 5.525e-11 
4988 KSP Residual norm 5.536e-11 
4989 KSP Residual norm 5.548e-11 
4990 KSP Residual norm 5.559e-11 
4991 KSP Residual norm 5.570e-11 
4992 KSP Residual norm 5.581e-11 
4993 KSP Residual norm 5.591e-11 
4994 KSP Residual norm 5.600e-11 
4995 KSP Residual norm 5.609e-11 
4996 KSP Residual norm 5.617e-11 
4997 KSP Residual norm 5.624e-11 
4998 KSP Residual norm 5.631e-11 
4999 KSP Residual norm 5.638e-11 
5000 KSP Residual norm 5.644e-11 
    Initial residual = 0.530039630099
    Iter = 0, relRef = 1, res = 0.728038206483, resAbs = 0.530039630099, nIters = 5000, maxD = 0.014326108753
Max pEpsilonEq = 0.000437651614208
Max epsilonEq = 0.000450941151053
Max sigmaEq (von Mises stress) = 104063342.551
ExecutionTime = 6.05 s  ClockTime = 7 s

Writing analyticalCellStress field

Writing cellStressDifference field
    Component: 0
    Norms: mean L1, mean L2, LInf: 
    3259078.77646 3833142.33677 10562317.16

    Component: 1
    Norms: mean L1, mean L2, LInf: 
    1288710.01706 1492857.27568 8381978.4138

    Component: 3
    Norms: mean L1, mean L2, LInf: 
    1936659.17205 2253704.34988 15897953.237

Writing analyticalPointDisplacement field

Writing pointDDifference field
    Norms: mean L1, mean L2, LInf: 
    0.000643984479545 0.000833342688928 0.00171261983737

The momentum equation converged in all time-steps


End

