/*---------------------------------------------------------------------------*\
| =========                 |                                                 |
| \\      /  F ield         | OpenFOAM: The Open Source CFD Toolbox           |
|  \\    /   O peration     | Version:  v2012                                 |
|   \\  /    A nd           | Website:  www.openfoam.com                      |
|    \\/     M anipulation  |                                                 |
\*---------------------------------------------------------------------------*/
Build  : _7bdb509494-20201222 OPENFOAM=2012
Arch   : "LSB;label=32;scalar=64"
Exec   : solids4Foam
Date   : Jul 31 2023
Time   : 18:13:35
Host   : DESKTOP-19FOE2K
PID    : 28343
I/O    : uncollated
Case   : /home/federico/OpenFOAM/federico-v2012/run/solid-benchmarks-main/Small-strain/elastoplasticity/plateHole_Ver1/vertexCentredLinearGeometry/unstructuredTriangles/vertex.3
nProcs : 1
trapFpe: Floating point exception trapping enabled (FOAM_SIGFPE).
fileModificationChecking : Monitoring run-time modified files using timeStampMaster (fileModificationSkew 5, maxFileModificationPolls 20)
allowSystemOperations : Allowing user-supplied system call operations

// * * * * * * * * * * * * * * * * * * * * * * * * * * * * * * * * * * * * * //
Create time

--> FOAM Warning : 
    From static Foam::IOstreamOption::compressionType Foam::IOstreamOption::compressionEnum(const Foam::word&, Foam::IOstreamOption::compressionType)
    in file db/IOstreams/IOstreams/IOstreamOption.C at line 115
    Unknown compression specifier 'uncompressed', using compression off
/*---------------------------------------------------------------------------*\
|    For further information on the solids4Foam toolbox implementations,      |
|    please see the following publications:                                   |
|                                                                             |
|    P. Cardiff, A Karac, P. De Jaeger, H. Jasak, J. Nagy, A. Ivankovic,      |
|    Z. Tukovic: An open-source finite volume toolbox for solid mechanics and |
|    fluid-solid interaction simulations. arXiv:1808.10736v2, 2018, available |
|    at https://arxiv.org/abs/1808.10736.                                     |
|                                                                             |
|    Z. Tukovic, A. Karac, P. Cardiff, H. Jasak, A. Ivankovic: OpenFOAM       |
|    finite volume solver for fluid-solid interaction.  Transactions of       |
|    Famena, 42 (3), pp. 1-31, 2018, 10.21278/TOF.42301.                      |
\*---------------------------------------------------------------------------*/

Selecting physicsModel solidModel
Selecting solidModel vertexCentredLinearGeometry
Selecting dynamicFvMesh staticFvMesh
    traction is time-varying
    under-relaxation method: fixed
Creating dualMesh
    featureAngle: 30
    doNotPreserveFaceZones: 0
    concaveMultiCells: 0
Creating the mechanicalModel
Selecting mechanical law linearElasticMisesPlastic
    Plasticity is linear
Creating the dualMechanicalModel
Selecting mechanical law linearElasticMisesPlastic
    Plasticity is linear
fixedDofScale: 4.57921e+09
Creating disp function object
    region = region0
    minDist: 1e-06
SortByCompY called2121
Time = 0.2

Evolving solid solver
    Assembling the matrix
    Solving
  0 KSP Residual norm 0.00629479 
  1 KSP Residual norm < 1.e-11
    Initial residual = 3.96243e-05
    Iter = 0, relRef = 1, res = 0.00629479, resAbs = 3.96243e-05, nIters = 1, maxD = 0.000101121
    Solving
  0 KSP Residual norm < 1.e-11
    Iter = 1, relRef = 0, res = 0, resAbs = 0, nIters = 0, maxD = 0.000101121
    Converged
    Max DEpsilonPEq is 0
    0 cells (0% of the cells in this material) are actively yielding

ExecutionTime = 1.63 s  ClockTime = 2 s

Time = 0.4

Evolving solid solver
    Assembling the matrix
    Solving
  0 KSP Residual norm 0.00629479 
  1 KSP Residual norm < 1.e-11
    Initial residual = 3.96243e-05
    Iter = 0, relRef = 1, res = 0.00629479, resAbs = 3.96243e-05, nIters = 1, maxD = 0.000202242
    Solving
  0 KSP Residual norm < 1.e-11
    Iter = 1, relRef = 0, res = 0, resAbs = 0, nIters = 0, maxD = 0.000202242
    Converged
    Max DEpsilonPEq is 0
    0 cells (0% of the cells in this material) are actively yielding

ExecutionTime = 2.36 s  ClockTime = 3 s

Time = 0.6

Evolving solid solver
    Assembling the matrix
    Solving
  0 KSP Residual norm 0.00629479 
  1 KSP Residual norm < 1.e-11
    Initial residual = 3.96243e-05
    Iter = 0, relRef = 1, res = 0.00629479, resAbs = 3.96243e-05, nIters = 1, maxD = 0.000303363
    Solving
  0 KSP Residual norm < 1.e-11
    Iter = 1, relRef = 0, res = 0, resAbs = 0, nIters = 0, maxD = 0.000303363
    Converged
    Max DEpsilonPEq is 0
    0 cells (0% of the cells in this material) are actively yielding

ExecutionTime = 2.96 s  ClockTime = 4 s

Time = 0.8

Evolving solid solver
    Assembling the matrix
    Solving
  0 KSP Residual norm 0.00629479 
  1 KSP Residual norm < 1.e-11
    Initial residual = 3.96243e-05
    Iter = 0, relRef = 1, res = 0.00629479, resAbs = 3.96243e-05, nIters = 1, maxD = 0.000404484
    Solving
  0 KSP Residual norm < 1.e-11
    Iter = 1, relRef = 0, res = 0, resAbs = 0, nIters = 0, maxD = 0.000404484
    Converged
    Max DEpsilonPEq is 0
    0 cells (0% of the cells in this material) are actively yielding

ExecutionTime = 3.61 s  ClockTime = 5 s

Time = 1

Evolving solid solver
    Assembling the matrix
    Solving
  0 KSP Residual norm 0.00629479 
  1 KSP Residual norm < 1.e-11
    Initial residual = 3.96243e-05
    Iter = 0, relRef = 1, res = 0.00629479, resAbs = 3.96243e-05, nIters = 1, maxD = 0.000505605
    Solving
  0 KSP Residual norm < 1.e-11
    Iter = 1, relRef = 0, res = 0, resAbs = 0, nIters = 0, maxD = 0.000505605
    Converged
    Max DEpsilonPEq is 0
    0 cells (0% of the cells in this material) are actively yielding

Max pEpsilonEq = 0.000614177
Max epsilonEq = 0.000629528
Max sigmaEq (von Mises stress) = 5.08465e+07
ExecutionTime = 4.51 s  ClockTime = 6 s

Time = 1.2

Evolving solid solver
    Assembling the matrix
    Solving
  0 KSP Residual norm 0.00629479 
  1 KSP Residual norm < 1.e-11
    Initial residual = 3.96243e-05
    Iter = 0, relRef = 1, res = 0.00629479, resAbs = 3.96243e-05, nIters = 1, maxD = 0.000606726
    Solving
  0 KSP Residual norm < 1.e-11
    Iter = 1, relRef = 0, res = 0, resAbs = 0, nIters = 0, maxD = 0.000606726
    Converged
    Max DEpsilonPEq is 0
    0 cells (0% of the cells in this material) are actively yielding

ExecutionTime = 5.21 s  ClockTime = 6 s

Time = 1.4

Evolving solid solver
    Assembling the matrix
    Solving
  0 KSP Residual norm 0.00629479 
  1 KSP Residual norm < 1.e-11
    Initial residual = 3.96243e-05
    Iter = 0, relRef = 1, res = 0.00629479, resAbs = 3.96243e-05, nIters = 1, maxD = 0.000707847
    Solving
  0 KSP Residual norm < 1.e-11
    Iter = 1, relRef = 0, res = 0, resAbs = 0, nIters = 0, maxD = 0.000707847
    Converged
    Max DEpsilonPEq is 0
    0 cells (0% of the cells in this material) are actively yielding

ExecutionTime = 5.86 s  ClockTime = 7 s

Time = 1.6

Evolving solid solver
    Assembling the matrix
    Solving
  0 KSP Residual norm 0.00629479 
  1 KSP Residual norm < 1.e-11
    Initial residual = 3.96243e-05
    Iter = 0, relRef = 1, res = 0.00629479, resAbs = 3.96243e-05, nIters = 1, maxD = 0.000808968
    Solving
  0 KSP Residual norm < 1.e-11
    Iter = 1, relRef = 0, res = 0, resAbs = 0, nIters = 0, maxD = 0.000808968
    Converged
    Max DEpsilonPEq is 0
    0 cells (0% of the cells in this material) are actively yielding

ExecutionTime = 6.46 s  ClockTime = 8 s

Time = 1.8

Evolving solid solver
    Assembling the matrix
    Solving
  0 KSP Residual norm 0.00629479 
  1 KSP Residual norm < 1.e-11
    Initial residual = 3.96243e-05
    Iter = 0, relRef = 1, res = 0.00629479, resAbs = 3.96243e-05, nIters = 1, maxD = 0.000910088
    Solving
  0 KSP Residual norm < 1.e-11
    Iter = 1, relRef = 0, res = 0, resAbs = 0, nIters = 0, maxD = 0.000910088
    Converged
    Max DEpsilonPEq is 0
    0 cells (0% of the cells in this material) are actively yielding

ExecutionTime = 7.12 s  ClockTime = 9 s

Time = 2

Evolving solid solver
    Assembling the matrix
    Solving
  0 KSP Residual norm 0.00629479 
  1 KSP Residual norm < 1.e-11
    Initial residual = 3.96243e-05
    Iter = 0, relRef = 1, res = 0.00629479, resAbs = 3.96243e-05, nIters = 1, maxD = 0.00101121
    Solving
  0 KSP Residual norm < 1.e-11
    Iter = 1, relRef = 0, res = 0, resAbs = 0, nIters = 0, maxD = 0.00101121
    Converged
    Max DEpsilonPEq is 0
    0 cells (0% of the cells in this material) are actively yielding

Max pEpsilonEq = 0.00122835
Max epsilonEq = 0.00125906
Max sigmaEq (von Mises stress) = 1.01693e+08
ExecutionTime = 8.05 s  ClockTime = 10 s

Time = 2.2

Evolving solid solver
    Assembling the matrix
    Solving
  0 KSP Residual norm 0.00629479 
  1 KSP Residual norm < 1.e-11
    Initial residual = 3.96243e-05
    Iter = 0, relRef = 1, res = 0.00629479, resAbs = 3.96243e-05, nIters = 1, maxD = 0.00111233
    Solving
  0 KSP Residual norm < 1.e-11
    Iter = 1, relRef = 0, res = 0, resAbs = 0, nIters = 0, maxD = 0.00111233
    Converged
    Max DEpsilonPEq is 0
    0 cells (0% of the cells in this material) are actively yielding

ExecutionTime = 8.8 s  ClockTime = 11 s

Time = 2.4

Evolving solid solver
    Assembling the matrix
    Solving
  0 KSP Residual norm 0.00629479 
  1 KSP Residual norm < 1.e-11
    Initial residual = 3.96243e-05
    Iter = 0, relRef = 1, res = 0.00629479, resAbs = 3.96243e-05, nIters = 1, maxD = 0.00121345
    Solving
  0 KSP Residual norm < 1.e-11
    Iter = 1, relRef = 0, res = 0, resAbs = 0, nIters = 0, maxD = 0.00121345
    Converged
    Max DEpsilonPEq is 0
    0 cells (0% of the cells in this material) are actively yielding

ExecutionTime = 9.58 s  ClockTime = 11 s

Time = 2.6

Evolving solid solver
    Assembling the matrix
    Solving
  0 KSP Residual norm 0.00629479 
  1 KSP Residual norm < 1.e-11
    Initial residual = 3.96243e-05
    Iter = 0, relRef = 1, res = 0.00629479, resAbs = 3.96243e-05, nIters = 1, maxD = 0.00131457
    Solving
  0 KSP Residual norm < 1.e-11
    Iter = 1, relRef = 0, res = 0, resAbs = 0, nIters = 0, maxD = 0.00131457
    Converged
    Max DEpsilonPEq is 0
    0 cells (0% of the cells in this material) are actively yielding

ExecutionTime = 10.31 s  ClockTime = 12 s

Time = 2.8

Evolving solid solver
    Assembling the matrix
    Solving
  0 KSP Residual norm 0.00629479 
  1 KSP Residual norm < 1.e-11
    Initial residual = 3.96243e-05
    Iter = 0, relRef = 1, res = 0.00629479, resAbs = 3.96243e-05, nIters = 1, maxD = 0.00141569
    Solving
  0 KSP Residual norm < 1.e-11
    Iter = 1, relRef = 0, res = 0, resAbs = 0, nIters = 0, maxD = 0.00141569
    Converged
    Max DEpsilonPEq is 0
    0 cells (0% of the cells in this material) are actively yielding

ExecutionTime = 11.04 s  ClockTime = 13 s

Time = 3

Evolving solid solver
    Assembling the matrix
    Solving
  0 KSP Residual norm 0.00629479 
  1 KSP Residual norm < 1.e-11
    Initial residual = 3.96243e-05
    Iter = 0, relRef = 1, res = 0.00629479, resAbs = 3.96243e-05, nIters = 1, maxD = 0.00151681
    Solving
  0 KSP Residual norm < 1.e-11
    Iter = 1, relRef = 0, res = 0, resAbs = 0, nIters = 0, maxD = 0.00151681
    Converged
    Max DEpsilonPEq is 0
    0 cells (0% of the cells in this material) are actively yielding

Max pEpsilonEq = 0.00184253
Max epsilonEq = 0.00188858
Max sigmaEq (von Mises stress) = 1.52539e+08
ExecutionTime = 11.81 s  ClockTime = 14 s

Time = 3.2

Evolving solid solver
    Assembling the matrix
    Solving
  0 KSP Residual norm 0.00629479 
  1 KSP Residual norm < 1.e-11
    Initial residual = 3.96243e-05
    Iter = 0, relRef = 1, res = 0.00629479, resAbs = 3.96243e-05, nIters = 1, maxD = 0.00161794
    Solving
  0 KSP Residual norm < 1.e-11
    Iter = 1, relRef = 0, res = 0, resAbs = 0, nIters = 0, maxD = 0.00161794
    Converged
    Max DEpsilonPEq is 0
    0 cells (0% of the cells in this material) are actively yielding

ExecutionTime = 12.65 s  ClockTime = 15 s

Time = 3.4

Evolving solid solver
    Assembling the matrix
    Solving
  0 KSP Residual norm 0.00629479 
  1 KSP Residual norm < 1.e-11
    Initial residual = 3.96243e-05
    Iter = 0, relRef = 1, res = 0.00629479, resAbs = 3.96243e-05, nIters = 1, maxD = 0.00171906
    Solving
  0 KSP Residual norm < 1.e-11
    Iter = 1, relRef = 0, res = 0, resAbs = 0, nIters = 0, maxD = 0.00171906
    Converged
    Max DEpsilonPEq is 0
    0 cells (0% of the cells in this material) are actively yielding

ExecutionTime = 13.28 s  ClockTime = 16 s

Time = 3.6

Evolving solid solver
    Assembling the matrix
    Solving
  0 KSP Residual norm 0.00629479 
  1 KSP Residual norm < 1.e-11
    Initial residual = 3.96243e-05
    Iter = 0, relRef = 1, res = 0.00629479, resAbs = 3.96243e-05, nIters = 1, maxD = 0.00182018
    Solving
  0 KSP Residual norm < 1.e-11
    Iter = 1, relRef = 0, res = 0, resAbs = 0, nIters = 0, maxD = 0.00182018
    Converged
    Max DEpsilonPEq is 0
    0 cells (0% of the cells in this material) are actively yielding

ExecutionTime = 13.96 s  ClockTime = 17 s

Time = 3.8

Evolving solid solver
    Assembling the matrix
    Solving
  0 KSP Residual norm 0.00629479 
  1 KSP Residual norm < 1.e-11
    Initial residual = 3.96243e-05
    Iter = 0, relRef = 1, res = 0.00629479, resAbs = 3.96243e-05, nIters = 1, maxD = 0.0019213
    Solving
  0 KSP Residual norm < 1.e-11
    Iter = 1, relRef = 0, res = 0, resAbs = 0, nIters = 0, maxD = 0.0019213
    Converged
    Max DEpsilonPEq is 0
    0 cells (0% of the cells in this material) are actively yielding

ExecutionTime = 14.64 s  ClockTime = 17 s

Time = 4

Evolving solid solver
    Assembling the matrix
    Solving
  0 KSP Residual norm 0.00629479 
  1 KSP Residual norm < 1.e-11
    Initial residual = 3.96243e-05
    Iter = 0, relRef = 1, res = 0.00629479, resAbs = 3.96243e-05, nIters = 1, maxD = 0.00202242
    Solving
  0 KSP Residual norm < 1.e-11
    Iter = 1, relRef = 0, res = 0, resAbs = 0, nIters = 0, maxD = 0.00202242
    Converged
    Max DEpsilonPEq is 0
    0 cells (0% of the cells in this material) are actively yielding

Max pEpsilonEq = 0.00245671
Max epsilonEq = 0.00251811
Max sigmaEq (von Mises stress) = 2.03386e+08
ExecutionTime = 15.53 s  ClockTime = 18 s

Time = 4.2

Evolving solid solver
    Assembling the matrix
    Solving
  0 KSP Residual norm 0.00629479 
  1 KSP Residual norm < 1.e-11
    Initial residual = 3.96243e-05
    Iter = 0, relRef = 1, res = 0.00629479, resAbs = 3.96243e-05, nIters = 1, maxD = 0.00212354
    Solving
  0 KSP Residual norm < 1.e-11
    Iter = 1, relRef = 0, res = 0, resAbs = 0, nIters = 0, maxD = 0.00212354
    Converged
    Max DEpsilonPEq is 0
    0 cells (0% of the cells in this material) are actively yielding

ExecutionTime = 16.18 s  ClockTime = 19 s

Time = 4.4

Evolving solid solver
    Assembling the matrix
    Solving
  0 KSP Residual norm 0.00629479 
  1 KSP Residual norm < 1.e-11
    Initial residual = 3.96243e-05
    Iter = 0, relRef = 1, res = 0.00629479, resAbs = 3.96243e-05, nIters = 1, maxD = 0.00222466
    Solving
  0 KSP Residual norm < 1.e-11
    Iter = 1, relRef = 0, res = 0, resAbs = 0, nIters = 0, maxD = 0.00222466
    Converged
    Max DEpsilonPEq is 0
    0 cells (0% of the cells in this material) are actively yielding

ExecutionTime = 16.91 s  ClockTime = 20 s

Time = 4.6

Evolving solid solver
    Assembling the matrix
    Solving
  0 KSP Residual norm 0.00629479 
  1 KSP Residual norm < 1.e-11
    Initial residual = 3.96243e-05
    Iter = 0, relRef = 1, res = 0.00629479, resAbs = 3.96243e-05, nIters = 1, maxD = 0.00232578
    Solving
  0 KSP Residual norm < 1.e-11
    Iter = 1, relRef = 0, res = 0, resAbs = 0, nIters = 0, maxD = 0.00232578
    Converged
    Max DEpsilonPEq is 0
    0 cells (0% of the cells in this material) are actively yielding

ExecutionTime = 17.62 s  ClockTime = 21 s

Time = 4.8

Evolving solid solver
    Assembling the matrix
    Solving
  0 KSP Residual norm 0.00629479 
  1 KSP Residual norm < 1.e-11
    Initial residual = 3.96243e-05
    Iter = 0, relRef = 1, res = 0.00629479, resAbs = 3.96243e-05, nIters = 1, maxD = 0.0024269
    Solving
  0 KSP Residual norm 1.97936e-06 
  1 KSP Residual norm < 1.e-11
    Iter = 1, relRef = 9.88752e-08, res = 1.97936e-06, resAbs = 3.91786e-12, nIters = 1, maxD = 0.00242692
    Solving
  0 KSP Residual norm 5.64267e-07 
  1 KSP Residual norm < 1.e-11
    Iter = 2, relRef = 8.0354e-09, res = 5.64267e-07, resAbs = 3.18397e-13, nIters = 1, maxD = 0.00242693
    Solving
  0 KSP Residual norm 1.61719e-07 
  1 KSP Residual norm < 1.e-11
    Iter = 3, relRef = 6.60024e-10, res = 1.61719e-07, resAbs = 2.6153e-14, nIters = 1, maxD = 0.00242693
    Solving
  0 KSP Residual norm 4.6724e-08 
  1 KSP Residual norm < 1.e-11
    Iter = 4, relRef = 5.50957e-11, res = 4.6724e-08, resAbs = 2.18313e-15, nIters = 1, maxD = 0.00242693
    Converged
    Max DEpsilonPEq is 1.80379e-05
    2 cells (0.0260892% of the cells in this material) are actively yielding

ExecutionTime = 19.12 s  ClockTime = 23 s

Time = 5

Evolving solid solver
    Assembling the matrix
    Solving
  0 KSP Residual norm 0.00631094 
  1 KSP Residual norm < 1.e-11
    Initial residual = 3.98279e-05
    Iter = 0, relRef = 1, res = 0.00631094, resAbs = 3.98279e-05, nIters = 1, maxD = 0.00252824
    Solving
  0 KSP Residual norm 9.00973e-06 
  1 KSP Residual norm < 1.e-11
    Iter = 1, relRef = 2.03815e-06, res = 9.00973e-06, resAbs = 8.11753e-11, nIters = 1, maxD = 0.00252834
    Solving
  0 KSP Residual norm 1.6501e-06 
  1 KSP Residual norm < 1.e-11
    Iter = 2, relRef = 6.83647e-08, res = 1.6501e-06, resAbs = 2.72282e-12, nIters = 1, maxD = 0.00252835
    Solving
  0 KSP Residual norm 3.04215e-07 
  1 KSP Residual norm < 1.e-11
    Iter = 3, relRef = 2.32366e-09, res = 3.04215e-07, resAbs = 9.25466e-14, nIters = 1, maxD = 0.00252836
    Solving
  0 KSP Residual norm 5.76663e-08 
  1 KSP Residual norm < 1.e-11
    Iter = 4, relRef = 8.34943e-11, res = 5.76663e-08, resAbs = 3.3254e-15, nIters = 1, maxD = 0.00252836
    Converged
    Max DEpsilonPEq is 0.000189445
    2 cells (0.0260892% of the cells in this material) are actively yielding

Max pEpsilonEq = 0.00312288
Max epsilonEq = 0.00321381
Max sigmaEq (von Mises stress) = 2.43e+08
ExecutionTime = 20.65 s  ClockTime = 25 s

Time = 5.2

Evolving solid solver
    Assembling the matrix
    Solving
  0 KSP Residual norm 0.00631088 
  1 KSP Residual norm < 1.e-11
    Initial residual = 3.98273e-05
    Iter = 0, relRef = 1, res = 0.00631088, resAbs = 3.98273e-05, nIters = 1, maxD = 0.00262966
    Solving
  0 KSP Residual norm 2.33595e-05 
  1 KSP Residual norm < 1.e-11
    Iter = 1, relRef = 1.37008e-05, res = 2.33595e-05, resAbs = 5.45666e-10, nIters = 1, maxD = 0.00262992
    Solving
  0 KSP Residual norm 7.13699e-06 
  1 KSP Residual norm < 1.e-11
    Iter = 2, relRef = 1.27894e-06, res = 7.13699e-06, resAbs = 5.09367e-11, nIters = 1, maxD = 0.00262999
    Solving
  0 KSP Residual norm 2.45804e-06 
  1 KSP Residual norm < 1.e-11
    Iter = 3, relRef = 1.51705e-07, res = 2.45804e-06, resAbs = 6.04198e-12, nIters = 1, maxD = 0.00263002
    Solving
  0 KSP Residual norm 8.92138e-07 
  1 KSP Residual norm < 1.e-11
    Iter = 4, relRef = 1.9984e-08, res = 8.92138e-07, resAbs = 7.9591e-13, nIters = 1, maxD = 0.00263003
    Solving
  0 KSP Residual norm 3.33855e-07 
  1 KSP Residual norm < 1.e-11
    Iter = 5, relRef = 2.79856e-09, res = 3.33855e-07, resAbs = 1.11459e-13, nIters = 1, maxD = 0.00263003
    Solving
  0 KSP Residual norm 1.28033e-07 
  1 KSP Residual norm < 1.e-11
    Iter = 6, relRef = 4.1159e-10, res = 1.28033e-07, resAbs = 1.63925e-14, nIters = 1, maxD = 0.00263003
    Solving
  0 KSP Residual norm 5.02852e-08 
  1 KSP Residual norm < 1.e-11
    Iter = 7, relRef = 6.34893e-11, res = 5.02852e-08, resAbs = 2.5286e-15, nIters = 1, maxD = 0.00263003
    Converged
    Max DEpsilonPEq is 0.000180674
    5 cells (0.0652231% of the cells in this material) are actively yielding

ExecutionTime = 22.91 s  ClockTime = 27 s

Time = 5.4

Evolving solid solver
    Assembling the matrix
    Solving
  0 KSP Residual norm 0.00633357 
  1 KSP Residual norm < 1.e-11
    Initial residual = 4.01141e-05
    Iter = 0, relRef = 1, res = 0.00633357, resAbs = 4.01141e-05, nIters = 1, maxD = 0.00273161
    Solving
  0 KSP Residual norm 4.71855e-05 
  1 KSP Residual norm < 1.e-11
    Iter = 1, relRef = 5.55035e-05, res = 4.71855e-05, resAbs = 2.22647e-09, nIters = 1, maxD = 0.00273212
    Solving
  0 KSP Residual norm 1.69902e-05 
  1 KSP Residual norm < 1.e-11
    Iter = 2, relRef = 7.19613e-06, res = 1.69902e-05, resAbs = 2.88667e-10, nIters = 1, maxD = 0.0027323
    Solving
  0 KSP Residual norm 6.36301e-06 
  1 KSP Residual norm < 1.e-11
    Iter = 3, relRef = 1.00932e-06, res = 6.36301e-06, resAbs = 4.04879e-11, nIters = 1, maxD = 0.00273237
    Solving
  0 KSP Residual norm 2.49954e-06 
  1 KSP Residual norm < 1.e-11
    Iter = 4, relRef = 1.55748e-07, res = 2.49954e-06, resAbs = 6.24771e-12, nIters = 1, maxD = 0.00273239
    Solving
  0 KSP Residual norm 1.01122e-06 
  1 KSP Residual norm < 1.e-11
    Iter = 5, relRef = 2.54915e-08, res = 1.01122e-06, resAbs = 1.02257e-12, nIters = 1, maxD = 0.0027324
    Solving
  0 KSP Residual norm 4.16538e-07 
  1 KSP Residual norm < 1.e-11
    Iter = 6, relRef = 4.32526e-09, res = 4.16538e-07, resAbs = 1.73504e-13, nIters = 1, maxD = 0.00273241
    Solving
  0 KSP Residual norm 1.73396e-07 
  1 KSP Residual norm < 1.e-11
    Iter = 7, relRef = 7.49517e-10, res = 1.73396e-07, resAbs = 3.00662e-14, nIters = 1, maxD = 0.00273241
    Solving
  0 KSP Residual norm 7.25982e-08 
  1 KSP Residual norm < 1.e-11
    Iter = 8, relRef = 1.31388e-10, res = 7.25982e-08, resAbs = 5.2705e-15, nIters = 1, maxD = 0.00273241
    Solving
  0 KSP Residual norm 3.04805e-08 
  1 KSP Residual norm < 1.e-11
    Iter = 9, relRef = 2.31604e-11, res = 3.04805e-08, resAbs = 9.29059e-16, nIters = 1, maxD = 0.00273241
    Converged
    Max DEpsilonPEq is 0.000253159
    8 cells (0.104357% of the cells in this material) are actively yielding

ExecutionTime = 25.77 s  ClockTime = 30 s

Time = 5.6

Evolving solid solver
    Assembling the matrix
    Solving
  0 KSP Residual norm 0.00635274 
  1 KSP Residual norm < 1.e-11
    Initial residual = 4.03573e-05
    Iter = 0, relRef = 1, res = 0.00635274, resAbs = 4.03573e-05, nIters = 1, maxD = 0.00283421
    Solving
  0 KSP Residual norm 5.19918e-05 
  1 KSP Residual norm < 1.e-11
    Iter = 1, relRef = 6.69805e-05, res = 5.19918e-05, resAbs = 2.70315e-09, nIters = 1, maxD = 0.00283477
    Solving
  0 KSP Residual norm 1.92837e-05 
  1 KSP Residual norm < 1.e-11
    Iter = 2, relRef = 9.21425e-06, res = 1.92837e-05, resAbs = 3.71862e-10, nIters = 1, maxD = 0.00283498
    Solving
  0 KSP Residual norm 8.03834e-06 
  1 KSP Residual norm < 1.e-11
    Iter = 3, relRef = 1.60107e-06, res = 8.03834e-06, resAbs = 6.46149e-11, nIters = 1, maxD = 0.00283507
    Solving
  0 KSP Residual norm 3.95468e-06 
  1 KSP Residual norm < 1.e-11
    Iter = 4, relRef = 3.87527e-07, res = 3.95468e-06, resAbs = 1.56395e-11, nIters = 1, maxD = 0.00283511
    Solving
  0 KSP Residual norm 1.83688e-06 
  1 KSP Residual norm < 1.e-11
    Iter = 5, relRef = 8.36064e-08, res = 1.83688e-06, resAbs = 3.37413e-12, nIters = 1, maxD = 0.00283513
    Solving
  0 KSP Residual norm 8.36929e-07 
  1 KSP Residual norm < 1.e-11
    Iter = 6, relRef = 1.73562e-08, res = 8.36929e-07, resAbs = 7.00451e-13, nIters = 1, maxD = 0.00283514
    Solving
  0 KSP Residual norm 3.86023e-07 
  1 KSP Residual norm < 1.e-11
    Iter = 7, relRef = 3.69235e-09, res = 3.86023e-07, resAbs = 1.49013e-13, nIters = 1, maxD = 0.00283514
    Solving
  0 KSP Residual norm 1.79877e-07 
  1 KSP Residual norm < 1.e-11
    Iter = 8, relRef = 8.01733e-10, res = 1.79877e-07, resAbs = 3.23558e-14, nIters = 1, maxD = 0.00283515
    Solving
  0 KSP Residual norm 8.44447e-08 
  1 KSP Residual norm < 1.e-11
    Iter = 9, relRef = 1.76695e-10, res = 8.44447e-08, resAbs = 7.13092e-15, nIters = 1, maxD = 0.00283515
    Solving
  0 KSP Residual norm 3.98254e-08 
  1 KSP Residual norm < 1.e-11
    Iter = 10, relRef = 3.93006e-11, res = 3.98254e-08, resAbs = 1.58607e-15, nIters = 1, maxD = 0.00283515
    Converged
    Max DEpsilonPEq is 0.000249596
    14 cells (0.182625% of the cells in this material) are actively yielding

ExecutionTime = 28.87 s  ClockTime = 34 s

Time = 5.8

Evolving solid solver
    Assembling the matrix
    Solving
  0 KSP Residual norm 0.0063956 
  1 KSP Residual norm < 1.e-11
    Initial residual = 4.09038e-05
    Iter = 0, relRef = 1, res = 0.0063956, resAbs = 4.09038e-05, nIters = 1, maxD = 0.00293745
    Solving
  0 KSP Residual norm 8.85517e-05 
  1 KSP Residual norm < 1.e-11
    Iter = 1, relRef = 0.000191704, res = 8.85517e-05, resAbs = 7.8414e-09, nIters = 1, maxD = 0.00293842
    Solving
  0 KSP Residual norm 3.40594e-05 
  1 KSP Residual norm < 1.e-11
    Iter = 2, relRef = 2.83604e-05, res = 3.40594e-05, resAbs = 1.16004e-09, nIters = 1, maxD = 0.00293879
    Solving
  0 KSP Residual norm 1.32912e-05 
  1 KSP Residual norm < 1.e-11
    Iter = 3, relRef = 4.31879e-06, res = 1.32912e-05, resAbs = 1.76655e-10, nIters = 1, maxD = 0.00293893
    Solving
  0 KSP Residual norm 5.45373e-06 
  1 KSP Residual norm < 1.e-11
    Iter = 4, relRef = 7.27151e-07, res = 5.45373e-06, resAbs = 2.97432e-11, nIters = 1, maxD = 0.00293899
    Solving
  0 KSP Residual norm 2.33332e-06 
  1 KSP Residual norm < 1.e-11
    Iter = 5, relRef = 1.33103e-07, res = 2.33332e-06, resAbs = 5.4444e-12, nIters = 1, maxD = 0.00293902
    Solving
  0 KSP Residual norm 1.04338e-06 
  1 KSP Residual norm < 1.e-11
    Iter = 6, relRef = 2.66147e-08, res = 1.04338e-06, resAbs = 1.08864e-12, nIters = 1, maxD = 0.00293903
    Solving
  0 KSP Residual norm 4.90177e-07 
  1 KSP Residual norm < 1.e-11
    Iter = 7, relRef = 5.87413e-09, res = 4.90177e-07, resAbs = 2.40274e-13, nIters = 1, maxD = 0.00293903
    Solving
  0 KSP Residual norm 2.43202e-07 
  1 KSP Residual norm < 1.e-11
    Iter = 8, relRef = 1.44601e-09, res = 2.43202e-07, resAbs = 5.91474e-14, nIters = 1, maxD = 0.00293903
    Solving
  0 KSP Residual norm 1.27664e-07 
  1 KSP Residual norm < 1.e-11
    Iter = 9, relRef = 3.98453e-10, res = 1.27664e-07, resAbs = 1.62982e-14, nIters = 1, maxD = 0.00293904
    Solving
  0 KSP Residual norm 7.06491e-08 
  1 KSP Residual norm < 1.e-11
    Iter = 10, relRef = 1.22025e-10, res = 7.06491e-08, resAbs = 4.9913e-15, nIters = 1, maxD = 0.00293904
    Solving
  0 KSP Residual norm 4.08818e-08 
  1 KSP Residual norm < 1.e-11
    Iter = 11, relRef = 4.08599e-11, res = 4.08818e-08, resAbs = 1.67132e-15, nIters = 1, maxD = 0.00293904
    Converged
    Max DEpsilonPEq is 0.00030891
    16 cells (0.208714% of the cells in this material) are actively yielding

ExecutionTime = 32.09 s  ClockTime = 38 s

Time = 6

Evolving solid solver
    Assembling the matrix
    Solving
  0 KSP Residual norm 0.00640524 
  1 KSP Residual norm < 1.e-11
    Initial residual = 4.10271e-05
    Iter = 0, relRef = 1, res = 0.00640524, resAbs = 4.10271e-05, nIters = 1, maxD = 0.00304146
    Solving
  0 KSP Residual norm 0.000101246 
  1 KSP Residual norm < 1.e-11
    Iter = 1, relRef = 0.000249853, res = 0.000101246, resAbs = 1.02508e-08, nIters = 1, maxD = 0.00304257
    Solving
  0 KSP Residual norm 4.16158e-05 
  1 KSP Residual norm < 1.e-11
    Iter = 2, relRef = 4.22128e-05, res = 4.16158e-05, resAbs = 1.73187e-09, nIters = 1, maxD = 0.00304302
    Solving
  0 KSP Residual norm 1.73515e-05 
  1 KSP Residual norm < 1.e-11
    Iter = 3, relRef = 7.33841e-06, res = 1.73515e-05, resAbs = 3.01074e-10, nIters = 1, maxD = 0.00304321
    Solving
  0 KSP Residual norm 7.63965e-06 
  1 KSP Residual norm < 1.e-11
    Iter = 4, relRef = 1.42258e-06, res = 7.63965e-06, resAbs = 5.83642e-11, nIters = 1, maxD = 0.00304329
    Solving
  0 KSP Residual norm 3.53664e-06 
  1 KSP Residual norm < 1.e-11
    Iter = 5, relRef = 3.04867e-07, res = 3.53664e-06, resAbs = 1.25078e-11, nIters = 1, maxD = 0.00304333
    Solving
  0 KSP Residual norm 1.72583e-06 
  1 KSP Residual norm < 1.e-11
    Iter = 6, relRef = 7.25976e-08, res = 1.72583e-06, resAbs = 2.97847e-12, nIters = 1, maxD = 0.00304335
    Solving
  0 KSP Residual norm 8.876e-07 
  1 KSP Residual norm < 1.e-11
    Iter = 7, relRef = 1.92028e-08, res = 8.876e-07, resAbs = 7.87834e-13, nIters = 1, maxD = 0.00304335
    Solving
  0 KSP Residual norm 4.79153e-07 
  1 KSP Residual norm < 1.e-11
    Iter = 8, relRef = 5.59599e-09, res = 4.79153e-07, resAbs = 2.29587e-13, nIters = 1, maxD = 0.00304336
    Solving
  0 KSP Residual norm 2.69512e-07 
  1 KSP Residual norm < 1.e-11
    Iter = 9, relRef = 1.77046e-09, res = 2.69512e-07, resAbs = 7.26368e-14, nIters = 1, maxD = 0.00304336
    Solving
  0 KSP Residual norm 1.56597e-07 
  1 KSP Residual norm < 1.e-11
    Iter = 10, relRef = 5.97717e-10, res = 1.56597e-07, resAbs = 2.45226e-14, nIters = 1, maxD = 0.00304336
    Solving
  0 KSP Residual norm 9.32304e-08 
  1 KSP Residual norm < 1.e-11
    Iter = 11, relRef = 2.11858e-10, res = 9.32304e-08, resAbs = 8.69191e-15, nIters = 1, maxD = 0.00304336
    Solving
  0 KSP Residual norm 5.64932e-08 
  1 KSP Residual norm < 1.e-11
    Iter = 12, relRef = 7.77895e-11, res = 5.64932e-08, resAbs = 3.19148e-15, nIters = 1, maxD = 0.00304336
    Converged
    Max DEpsilonPEq is 0.000320388
    19 cells (0.247848% of the cells in this material) are actively yielding

Max pEpsilonEq = 0.00440715
Max epsilonEq = 0.00444331
Max sigmaEq (von Mises stress) = 2.43e+08
ExecutionTime = 35.95 s  ClockTime = 42 s

Time = 6.2

Evolving solid solver
    Assembling the matrix
    Solving
  0 KSP Residual norm 0.0064217 
  1 KSP Residual norm < 1.e-11
    Initial residual = 4.12382e-05
    Iter = 0, relRef = 1, res = 0.0064217, resAbs = 4.12382e-05, nIters = 1, maxD = 0.00314598
    Solving
  0 KSP Residual norm 0.000130045 
  1 KSP Residual norm < 1.e-11
    Iter = 1, relRef = 0.0004101, res = 0.000130045, resAbs = 1.69118e-08, nIters = 1, maxD = 0.00314741
    Solving
  0 KSP Residual norm 6.3693e-05 
  1 KSP Residual norm < 1.e-11
    Iter = 2, relRef = 9.83748e-05, res = 6.3693e-05, resAbs = 4.0568e-09, nIters = 1, maxD = 0.00314811
    Solving
  0 KSP Residual norm 3.04451e-05 
  1 KSP Residual norm < 1.e-11
    Iter = 3, relRef = 2.24768e-05, res = 3.04451e-05, resAbs = 9.26905e-10, nIters = 1, maxD = 0.00314844
    Solving
  0 KSP Residual norm 1.4797e-05 
  1 KSP Residual norm < 1.e-11
    Iter = 4, relRef = 5.30946e-06, res = 1.4797e-05, resAbs = 2.18953e-10, nIters = 1, maxD = 0.0031486
    Solving
  0 KSP Residual norm 7.26614e-06 
  1 KSP Residual norm < 1.e-11
    Iter = 5, relRef = 1.28029e-06, res = 7.26614e-06, resAbs = 5.27968e-11, nIters = 1, maxD = 0.00314868
    Solving
  0 KSP Residual norm 3.61235e-06 
  1 KSP Residual norm < 1.e-11
    Iter = 6, relRef = 3.16431e-07, res = 3.61235e-06, resAbs = 1.30491e-11, nIters = 1, maxD = 0.00314872
    Solving
  0 KSP Residual norm 1.82295e-06 
  1 KSP Residual norm < 1.e-11
    Iter = 7, relRef = 8.05841e-08, res = 1.82295e-06, resAbs = 3.32314e-12, nIters = 1, maxD = 0.00314874
    Solving
  0 KSP Residual norm 9.37834e-07 
  1 KSP Residual norm < 1.e-11
    Iter = 8, relRef = 2.13281e-08, res = 9.37834e-07, resAbs = 8.79534e-13, nIters = 1, maxD = 0.00314875
    Solving
  0 KSP Residual norm 4.94534e-07 
  1 KSP Residual norm < 1.e-11
    Iter = 9, relRef = 5.93052e-09, res = 4.94534e-07, resAbs = 2.44564e-13, nIters = 1, maxD = 0.00314876
    Solving
  0 KSP Residual norm 2.68858e-07 
  1 KSP Residual norm < 1.e-11
    Iter = 10, relRef = 1.75285e-09, res = 2.68858e-07, resAbs = 7.22846e-14, nIters = 1, maxD = 0.00314876
    Solving
  0 KSP Residual norm 1.51439e-07 
  1 KSP Residual norm < 1.e-11
    Iter = 11, relRef = 5.56129e-10, res = 1.51439e-07, resAbs = 2.29338e-14, nIters = 1, maxD = 0.00314876
    Solving
  0 KSP Residual norm 8.85866e-08 
  1 KSP Residual norm < 1.e-11
    Iter = 12, relRef = 1.90299e-10, res = 8.85866e-08, resAbs = 7.84758e-15, nIters = 1, maxD = 0.00314876
    Solving
  0 KSP Residual norm 5.37547e-08 
  1 KSP Residual norm < 1.e-11
    Iter = 13, relRef = 7.00703e-11, res = 5.37547e-08, resAbs = 2.88957e-15, nIters = 1, maxD = 0.00314876
    Converged
    Max DEpsilonPEq is 0.000327287
    27 cells (0.352205% of the cells in this material) are actively yielding

ExecutionTime = 39.97 s  ClockTime = 46 s

Time = 6.4

Evolving solid solver
    Assembling the matrix
    Solving
  0 KSP Residual norm 0.00646968 
  1 KSP Residual norm < 1.e-11
    Initial residual = 4.18567e-05
    Iter = 0, relRef = 1, res = 0.00646968, resAbs = 4.18567e-05, nIters = 1, maxD = 0.00325195
    Solving
  0 KSP Residual norm 0.000157759 
  1 KSP Residual norm < 1.e-11
    Iter = 1, relRef = 0.000594595, res = 0.000157759, resAbs = 2.48878e-08, nIters = 1, maxD = 0.00325369
    Solving
  0 KSP Residual norm 7.30994e-05 
  1 KSP Residual norm < 1.e-11
    Iter = 2, relRef = 0.000127662, res = 7.30994e-05, resAbs = 5.34353e-09, nIters = 1, maxD = 0.00325449
    Solving
  0 KSP Residual norm 3.4107e-05 
  1 KSP Residual norm < 1.e-11
    Iter = 3, relRef = 2.77921e-05, res = 3.4107e-05, resAbs = 1.16329e-09, nIters = 1, maxD = 0.00325487
    Solving
  0 KSP Residual norm 1.59537e-05 
  1 KSP Residual norm < 1.e-11
    Iter = 4, relRef = 6.08077e-06, res = 1.59537e-05, resAbs = 2.54521e-10, nIters = 1, maxD = 0.00325504
    Solving
  0 KSP Residual norm 7.48363e-06 
  1 KSP Residual norm < 1.e-11
    Iter = 5, relRef = 1.33801e-06, res = 7.48363e-06, resAbs = 5.60047e-11, nIters = 1, maxD = 0.00325512
    Solving
  0 KSP Residual norm 3.5479e-06 
  1 KSP Residual norm < 1.e-11
    Iter = 6, relRef = 3.00731e-07, res = 3.5479e-06, resAbs = 1.25876e-11, nIters = 1, maxD = 0.00325516
    Solving
  0 KSP Residual norm 1.70586e-06 
  1 KSP Residual norm < 1.e-11
    Iter = 7, relRef = 6.95221e-08, res = 1.70586e-06, resAbs = 2.90997e-12, nIters = 1, maxD = 0.00325518
    Solving
  0 KSP Residual norm 8.36679e-07 
  1 KSP Residual norm < 1.e-11
    Iter = 8, relRef = 1.67245e-08, res = 8.36679e-07, resAbs = 7.00032e-13, nIters = 1, maxD = 0.00325519
    Solving
  0 KSP Residual norm 4.21997e-07 
  1 KSP Residual norm < 1.e-11
    Iter = 9, relRef = 4.25456e-09, res = 4.21997e-07, resAbs = 1.78082e-13, nIters = 1, maxD = 0.00325519
    Solving
  0 KSP Residual norm 2.21026e-07 
  1 KSP Residual norm < 1.e-11
    Iter = 10, relRef = 1.16713e-09, res = 2.21026e-07, resAbs = 4.88523e-14, nIters = 1, maxD = 0.0032552
    Solving
  0 KSP Residual norm 1.21359e-07 
  1 KSP Residual norm < 1.e-11
    Iter = 11, relRef = 3.51867e-10, res = 1.21359e-07, resAbs = 1.4728e-14, nIters = 1, maxD = 0.0032552
    Solving
  0 KSP Residual norm 7.02581e-08 
  1 KSP Residual norm < 1.e-11
    Iter = 12, relRef = 1.17931e-10, res = 7.02581e-08, resAbs = 4.9362e-15, nIters = 1, maxD = 0.0032552
    Solving
  0 KSP Residual norm 4.2853e-08 
  1 KSP Residual norm < 1.e-11
    Iter = 13, relRef = 4.38731e-11, res = 4.2853e-08, resAbs = 1.83638e-15, nIters = 1, maxD = 0.0032552
    Converged
    Max DEpsilonPEq is 0.000330676
    29 cells (0.378294% of the cells in this material) are actively yielding

ExecutionTime = 43.84 s  ClockTime = 51 s

Time = 6.6

Evolving solid solver
    Assembling the matrix
    Solving
  0 KSP Residual norm 0.00647616 
  1 KSP Residual norm < 1.e-11
    Initial residual = 4.19406e-05
    Iter = 0, relRef = 1, res = 0.00647616, resAbs = 4.19406e-05, nIters = 1, maxD = 0.00335846
    Solving
  0 KSP Residual norm 0.000177843 
  1 KSP Residual norm < 1.e-11
    Iter = 1, relRef = 0.000754114, res = 0.000177843, resAbs = 3.1628e-08, nIters = 1, maxD = 0.00336043
    Solving
  0 KSP Residual norm 8.7356e-05 
  1 KSP Residual norm < 1.e-11
    Iter = 2, relRef = 0.000181949, res = 8.7356e-05, resAbs = 7.63107e-09, nIters = 1, maxD = 0.00336139
    Solving
  0 KSP Residual norm 4.29349e-05 
  1 KSP Residual norm < 1.e-11
    Iter = 3, relRef = 4.39527e-05, res = 4.29349e-05, resAbs = 1.8434e-09, nIters = 1, maxD = 0.00336186
    Solving
  0 KSP Residual norm 2.19248e-05 
  1 KSP Residual norm < 1.e-11
    Iter = 4, relRef = 1.14614e-05, res = 2.19248e-05, resAbs = 4.80697e-10, nIters = 1, maxD = 0.0033621
    Solving
  0 KSP Residual norm 1.1438e-05 
  1 KSP Residual norm < 1.e-11
    Iter = 5, relRef = 3.11934e-06, res = 1.1438e-05, resAbs = 1.30827e-10, nIters = 1, maxD = 0.00336223
    Solving
  0 KSP Residual norm 6.08811e-06 
  1 KSP Residual norm < 1.e-11
    Iter = 6, relRef = 8.83751e-07, res = 6.08811e-06, resAbs = 3.70651e-11, nIters = 1, maxD = 0.00336229
    Solving
  0 KSP Residual norm 3.30228e-06 
  1 KSP Residual norm < 1.e-11
    Iter = 7, relRef = 2.60012e-07, res = 3.30228e-06, resAbs = 1.09051e-11, nIters = 1, maxD = 0.00336233
    Solving
  0 KSP Residual norm 1.82484e-06 
  1 KSP Residual norm < 1.e-11
    Iter = 8, relRef = 7.93985e-08, res = 1.82484e-06, resAbs = 3.33002e-12, nIters = 1, maxD = 0.00336235
    Solving
  0 KSP Residual norm 1.02753e-06 
  1 KSP Residual norm < 1.e-11
    Iter = 9, relRef = 2.5174e-08, res = 1.02753e-06, resAbs = 1.05581e-12, nIters = 1, maxD = 0.00336236
    Solving
  0 KSP Residual norm 5.89911e-07 
  1 KSP Residual norm < 1.e-11
    Iter = 10, relRef = 8.29731e-09, res = 5.89911e-07, resAbs = 3.47994e-13, nIters = 1, maxD = 0.00336236
    Solving
  0 KSP Residual norm 3.45633e-07 
  1 KSP Residual norm < 1.e-11
    Iter = 11, relRef = 2.84837e-09, res = 3.45633e-07, resAbs = 1.19462e-13, nIters = 1, maxD = 0.00336237
    Solving
  0 KSP Residual norm 2.06917e-07 
  1 KSP Residual norm < 1.e-11
    Iter = 12, relRef = 1.02083e-09, res = 2.06917e-07, resAbs = 4.28144e-14, nIters = 1, maxD = 0.00336237
    Solving
  0 KSP Residual norm 1.26716e-07 
  1 KSP Residual norm < 1.e-11
    Iter = 13, relRef = 3.82852e-10, res = 1.26716e-07, resAbs = 1.6057e-14, nIters = 1, maxD = 0.00336237
    Solving
  0 KSP Residual norm 7.94475e-08 
  1 KSP Residual norm < 1.e-11
    Iter = 14, relRef = 1.50496e-10, res = 7.94475e-08, resAbs = 6.3119e-15, nIters = 1, maxD = 0.00336237
    Solving
  0 KSP Residual norm 5.10005e-08 
  1 KSP Residual norm < 1.e-11
    Iter = 15, relRef = 6.20173e-11, res = 5.10005e-08, resAbs = 2.60105e-15, nIters = 1, maxD = 0.00336237
    Converged
    Max DEpsilonPEq is 0.000353186
    33 cells (0.430472% of the cells in this material) are actively yielding

ExecutionTime = 48.28 s  ClockTime = 56 s

Time = 6.8

Evolving solid solver
    Assembling the matrix
    Solving
  0 KSP Residual norm 0.00649895 
  1 KSP Residual norm < 1.e-11
    Initial residual = 4.22363e-05
    Iter = 0, relRef = 1, res = 0.00649895, resAbs = 4.22363e-05, nIters = 1, maxD = 0.0034659
    Solving
  0 KSP Residual norm 0.00021444 
  1 KSP Residual norm < 1.e-11
    Iter = 1, relRef = 0.00108875, res = 0.00021444, resAbs = 4.59847e-08, nIters = 1, maxD = 0.00346828
    Solving
  0 KSP Residual norm 0.000111237 
  1 KSP Residual norm < 1.e-11
    Iter = 2, relRef = 0.000292962, res = 0.000111237, resAbs = 1.23736e-08, nIters = 1, maxD = 0.00346951
    Solving
  0 KSP Residual norm 5.71376e-05 
  1 KSP Residual norm < 1.e-11
    Iter = 3, relRef = 7.72961e-05, res = 5.71376e-05, resAbs = 3.2647e-09, nIters = 1, maxD = 0.00347014
    Solving
  0 KSP Residual norm 3.01747e-05 
  1 KSP Residual norm < 1.e-11
    Iter = 4, relRef = 2.15576e-05, res = 3.01747e-05, resAbs = 9.10512e-10, nIters = 1, maxD = 0.00347047
    Solving
  0 KSP Residual norm 1.62067e-05 
  1 KSP Residual norm < 1.e-11
    Iter = 5, relRef = 6.21876e-06, res = 1.62067e-05, resAbs = 2.62658e-10, nIters = 1, maxD = 0.00347065
    Solving
  0 KSP Residual norm 8.83541e-06 
  1 KSP Residual norm < 1.e-11
    Iter = 6, relRef = 1.84828e-06, res = 8.83541e-06, resAbs = 7.80645e-11, nIters = 1, maxD = 0.00347075
    Solving
  0 KSP Residual norm 4.87923e-06 
  1 KSP Residual norm < 1.e-11
    Iter = 7, relRef = 5.63658e-07, res = 4.87923e-06, resAbs = 2.38069e-11, nIters = 1, maxD = 0.0034708
    Solving
  0 KSP Residual norm 2.72582e-06 
  1 KSP Residual norm < 1.e-11
    Iter = 8, relRef = 1.75917e-07, res = 2.72582e-06, resAbs = 7.4301e-12, nIters = 1, maxD = 0.00347083
    Solving
  0 KSP Residual norm 1.53913e-06 
  1 KSP Residual norm < 1.e-11
    Iter = 9, relRef = 5.60873e-08, res = 1.53913e-06, resAbs = 2.36892e-12, nIters = 1, maxD = 0.00347085
    Solving
  0 KSP Residual norm 8.77939e-07 
  1 KSP Residual norm < 1.e-11
    Iter = 10, relRef = 1.82491e-08, res = 8.77939e-07, resAbs = 7.70777e-13, nIters = 1, maxD = 0.00347086
    Solving
  0 KSP Residual norm 5.0583e-07 
  1 KSP Residual norm < 1.e-11
    Iter = 11, relRef = 6.05791e-09, res = 5.0583e-07, resAbs = 2.55864e-13, nIters = 1, maxD = 0.00347086
    Solving
  0 KSP Residual norm 2.94442e-07 
  1 KSP Residual norm < 1.e-11
    Iter = 12, relRef = 2.05264e-09, res = 2.94442e-07, resAbs = 8.6696e-14, nIters = 1, maxD = 0.00347086
    Solving
  0 KSP Residual norm 1.73269e-07 
  1 KSP Residual norm < 1.e-11
    Iter = 13, relRef = 7.10813e-10, res = 1.73269e-07, resAbs = 3.00221e-14, nIters = 1, maxD = 0.00347087
    Solving
  0 KSP Residual norm 1.03183e-07 
  1 KSP Residual norm < 1.e-11
    Iter = 14, relRef = 2.52073e-10, res = 1.03183e-07, resAbs = 1.06466e-14, nIters = 1, maxD = 0.00347087
    Solving
  0 KSP Residual norm 6.22656e-08 
  1 KSP Residual norm < 1.e-11
    Iter = 15, relRef = 9.17931e-11, res = 6.22656e-08, resAbs = 3.877e-15, nIters = 1, maxD = 0.00347087
    Converged
    Max DEpsilonPEq is 0.000353603
    40 cells (0.521785% of the cells in this material) are actively yielding

ExecutionTime = 52.69 s  ClockTime = 61 s

Time = 7

Evolving solid solver
    Assembling the matrix
    Solving
  0 KSP Residual norm 0.00653631 
  1 KSP Residual norm < 1.e-11
    Initial residual = 4.27233e-05
    Iter = 0, relRef = 1, res = 0.00653631, resAbs = 4.27233e-05, nIters = 1, maxD = 0.00357485
    Solving
  0 KSP Residual norm 0.00022732 
  1 KSP Residual norm < 1.e-11
    Iter = 1, relRef = 0.00120952, res = 0.00022732, resAbs = 5.16745e-08, nIters = 1, maxD = 0.00357737
    Solving
  0 KSP Residual norm 0.000123934 
  1 KSP Residual norm < 1.e-11
    Iter = 2, relRef = 0.000359514, res = 0.000123934, resAbs = 1.53596e-08, nIters = 1, maxD = 0.00357875
    Solving
  0 KSP Residual norm 6.60777e-05 
  1 KSP Residual norm < 1.e-11
    Iter = 3, relRef = 0.000102199, res = 6.60777e-05, resAbs = 4.36626e-09, nIters = 1, maxD = 0.00357948
    Solving
  0 KSP Residual norm 3.61538e-05 
  1 KSP Residual norm < 1.e-11
    Iter = 4, relRef = 3.05944e-05, res = 3.61538e-05, resAbs = 1.30709e-09, nIters = 1, maxD = 0.00357988
    Solving
  0 KSP Residual norm 2.01153e-05 
  1 KSP Residual norm < 1.e-11
    Iter = 5, relRef = 9.47086e-06, res = 2.01153e-05, resAbs = 4.04626e-10, nIters = 1, maxD = 0.0035801
    Solving
  0 KSP Residual norm 1.13795e-05 
  1 KSP Residual norm < 1.e-11
    Iter = 6, relRef = 3.03096e-06, res = 1.13795e-05, resAbs = 1.29492e-10, nIters = 1, maxD = 0.00358022
    Solving
  0 KSP Residual norm 6.54521e-06 
  1 KSP Residual norm < 1.e-11
    Iter = 7, relRef = 1.00273e-06, res = 6.54521e-06, resAbs = 4.28398e-11, nIters = 1, maxD = 0.00358029
    Solving
  0 KSP Residual norm 3.82923e-06 
  1 KSP Residual norm < 1.e-11
    Iter = 8, relRef = 3.43209e-07, res = 3.82923e-06, resAbs = 1.4663e-11, nIters = 1, maxD = 0.00358033
    Solving
  0 KSP Residual norm 2.27969e-06 
  1 KSP Residual norm < 1.e-11
    Iter = 9, relRef = 1.21643e-07, res = 2.27969e-06, resAbs = 5.19699e-12, nIters = 1, maxD = 0.00358036
    Solving
  0 KSP Residual norm 1.38145e-06 
  1 KSP Residual norm < 1.e-11
    Iter = 10, relRef = 4.46688e-08, res = 1.38145e-06, resAbs = 1.9084e-12, nIters = 1, maxD = 0.00358037
    Solving
  0 KSP Residual norm 8.52087e-07 
  1 KSP Residual norm < 1.e-11
    Iter = 11, relRef = 1.69943e-08, res = 8.52087e-07, resAbs = 7.26052e-13, nIters = 1, maxD = 0.00358038
    Solving
  0 KSP Residual norm 5.34784e-07 
  1 KSP Residual norm < 1.e-11
    Iter = 12, relRef = 6.6941e-09, res = 5.34784e-07, resAbs = 2.85994e-13, nIters = 1, maxD = 0.00358039
    Solving
  0 KSP Residual norm 3.41299e-07 
  1 KSP Residual norm < 1.e-11
    Iter = 13, relRef = 2.72649e-09, res = 3.41299e-07, resAbs = 1.16485e-13, nIters = 1, maxD = 0.00358039
    Solving
  0 KSP Residual norm 2.21288e-07 
  1 KSP Residual norm < 1.e-11
    Iter = 14, relRef = 1.14618e-09, res = 2.21288e-07, resAbs = 4.89685e-14, nIters = 1, maxD = 0.00358039
    Solving
  0 KSP Residual norm 1.45607e-07 
  1 KSP Residual norm < 1.e-11
    Iter = 15, relRef = 4.96252e-10, res = 1.45607e-07, resAbs = 2.12015e-14, nIters = 1, maxD = 0.00358039
    Solving
  0 KSP Residual norm 9.71197e-08 
  1 KSP Residual norm < 1.e-11
    Iter = 16, relRef = 2.20775e-10, res = 9.71197e-08, resAbs = 9.43224e-15, nIters = 1, maxD = 0.0035804
    Solving
  0 KSP Residual norm 6.55884e-08 
  1 KSP Residual norm < 1.e-11
    Iter = 17, relRef = 1.00691e-10, res = 6.55884e-08, resAbs = 4.30184e-15, nIters = 1, maxD = 0.0035804
    Solving
  0 KSP Residual norm 4.47984e-08 
  1 KSP Residual norm < 1.e-11
    Iter = 18, relRef = 4.69742e-11, res = 4.47984e-08, resAbs = 2.00689e-15, nIters = 1, maxD = 0.0035804
    Converged
    Max DEpsilonPEq is 0.000378246
    45 cells (0.587008% of the cells in this material) are actively yielding

Max pEpsilonEq = 0.00610034
Max epsilonEq = 0.00606378
Max sigmaEq (von Mises stress) = 2.43e+08
ExecutionTime = 58.33 s  ClockTime = 67 s

Time = 7.2

Evolving solid solver
    Assembling the matrix
    Solving
  0 KSP Residual norm 0.0065595 
  1 KSP Residual norm < 1.e-11
    Initial residual = 4.30271e-05
    Iter = 0, relRef = 1, res = 0.0065595, resAbs = 4.30271e-05, nIters = 1, maxD = 0.00368465
    Solving
  0 KSP Residual norm 0.000268912 
  1 KSP Residual norm < 1.e-11
    Iter = 1, relRef = 0.00168066, res = 0.000268912, resAbs = 7.23139e-08, nIters = 1, maxD = 0.00368765
    Solving
  0 KSP Residual norm 0.00015085 
  1 KSP Residual norm < 1.e-11
    Iter = 2, relRef = 0.000528868, res = 0.00015085, resAbs = 2.27556e-08, nIters = 1, maxD = 0.00368933
    Solving
  0 KSP Residual norm 8.17616e-05 
  1 KSP Residual norm < 1.e-11
    Iter = 3, relRef = 0.000155366, res = 8.17616e-05, resAbs = 6.68496e-09, nIters = 1, maxD = 0.00369023
    Solving
  0 KSP Residual norm 4.49902e-05 
  1 KSP Residual norm < 1.e-11
    Iter = 4, relRef = 4.70428e-05, res = 4.49902e-05, resAbs = 2.02411e-09, nIters = 1, maxD = 0.00369073
    Solving
  0 KSP Residual norm 2.49766e-05 
  1 KSP Residual norm < 1.e-11
    Iter = 5, relRef = 1.44986e-05, res = 2.49766e-05, resAbs = 6.23833e-10, nIters = 1, maxD = 0.00369101
    Solving
  0 KSP Residual norm 1.39906e-05 
  1 KSP Residual norm < 1.e-11
    Iter = 6, relRef = 4.54916e-06, res = 1.39906e-05, resAbs = 1.95737e-10, nIters = 1, maxD = 0.00369116
    Solving
  0 KSP Residual norm 7.9197e-06 
  1 KSP Residual norm < 1.e-11
    Iter = 7, relRef = 1.45773e-06, res = 7.9197e-06, resAbs = 6.27217e-11, nIters = 1, maxD = 0.00369125
    Solving
  0 KSP Residual norm 4.57518e-06 
  1 KSP Residual norm < 1.e-11
    Iter = 8, relRef = 4.86491e-07, res = 4.57518e-06, resAbs = 2.09323e-11, nIters = 1, maxD = 0.0036913
    Solving
  0 KSP Residual norm 2.68669e-06 
  1 KSP Residual norm < 1.e-11
    Iter = 9, relRef = 1.67762e-07, res = 2.68669e-06, resAbs = 7.21829e-12, nIters = 1, maxD = 0.00369133
    Solving
  0 KSP Residual norm 1.59904e-06 
  1 KSP Residual norm < 1.e-11
    Iter = 10, relRef = 5.94259e-08, res = 1.59904e-06, resAbs = 2.55692e-12, nIters = 1, maxD = 0.00369134
    Solving
  0 KSP Residual norm 9.71051e-07 
  1 KSP Residual norm < 1.e-11
    Iter = 11, relRef = 2.1915e-08, res = 9.71051e-07, resAbs = 9.4294e-13, nIters = 1, maxD = 0.00369135
    Solving
  0 KSP Residual norm 6.02857e-07 
  1 KSP Residual norm < 1.e-11
    Iter = 12, relRef = 8.4467e-09, res = 6.02857e-07, resAbs = 3.63437e-13, nIters = 1, maxD = 0.00369136
    Solving
  0 KSP Residual norm 3.83095e-07 
  1 KSP Residual norm < 1.e-11
    Iter = 13, relRef = 3.41092e-09, res = 3.83095e-07, resAbs = 1.46762e-13, nIters = 1, maxD = 0.00369136
    Solving
  0 KSP Residual norm 2.49219e-07 
  1 KSP Residual norm < 1.e-11
    Iter = 14, relRef = 1.44351e-09, res = 2.49219e-07, resAbs = 6.21101e-14, nIters = 1, maxD = 0.00369137
    Solving
  0 KSP Residual norm 1.65821e-07 
  1 KSP Residual norm < 1.e-11
    Iter = 15, relRef = 6.39056e-10, res = 1.65821e-07, resAbs = 2.74967e-14, nIters = 1, maxD = 0.00369137
    Solving
  0 KSP Residual norm 1.12646e-07 
  1 KSP Residual norm < 1.e-11
    Iter = 16, relRef = 2.94911e-10, res = 1.12646e-07, resAbs = 1.26891e-14, nIters = 1, maxD = 0.00369137
    Solving
  0 KSP Residual norm 7.79488e-08 
  1 KSP Residual norm < 1.e-11
    Iter = 17, relRef = 1.41214e-10, res = 7.79488e-08, resAbs = 6.07602e-15, nIters = 1, maxD = 0.00369137
    Solving
  0 KSP Residual norm 5.48071e-08 
  1 KSP Residual norm < 1.e-11
    Iter = 18, relRef = 6.98122e-11, res = 5.48071e-08, resAbs = 3.00382e-15, nIters = 1, maxD = 0.00369137
    Converged
    Max DEpsilonPEq is 0.000394532
    50 cells (0.652231% of the cells in this material) are actively yielding

ExecutionTime = 63.57 s  ClockTime = 73 s

Time = 7.4

Evolving solid solver
    Assembling the matrix
    Solving
  0 KSP Residual norm 0.00658078 
  1 KSP Residual norm < 1.e-11
    Initial residual = 4.33066e-05
    Iter = 0, relRef = 1, res = 0.00658078, resAbs = 4.33066e-05, nIters = 1, maxD = 0.00379588
    Solving
  0 KSP Residual norm 0.00029845 
  1 KSP Residual norm < 1.e-11
    Iter = 1, relRef = 0.00205678, res = 0.00029845, resAbs = 8.90721e-08, nIters = 1, maxD = 0.00379921
    Solving
  0 KSP Residual norm 0.000171367 
  1 KSP Residual norm < 1.e-11
    Iter = 2, relRef = 0.000678108, res = 0.000171367, resAbs = 2.93666e-08, nIters = 1, maxD = 0.00380112
    Solving
  0 KSP Residual norm 9.69235e-05 
  1 KSP Residual norm < 1.e-11
    Iter = 3, relRef = 0.000216922, res = 9.69235e-05, resAbs = 9.39416e-09, nIters = 1, maxD = 0.0038022
    Solving
  0 KSP Residual norm 5.50784e-05 
  1 KSP Residual norm < 1.e-11
    Iter = 4, relRef = 7.005e-05, res = 5.50784e-05, resAbs = 3.03363e-09, nIters = 1, maxD = 0.00380282
    Solving
  0 KSP Residual norm 3.14598e-05 
  1 KSP Residual norm < 1.e-11
    Iter = 5, relRef = 2.28537e-05, res = 3.14598e-05, resAbs = 9.89717e-10, nIters = 1, maxD = 0.00380317
    Solving
  0 KSP Residual norm 1.80681e-05 
  1 KSP Residual norm < 1.e-11
    Iter = 6, relRef = 7.53828e-06, res = 1.80681e-05, resAbs = 3.26457e-10, nIters = 1, maxD = 0.00380337
    Solving
  0 KSP Residual norm 1.0432e-05 
  1 KSP Residual norm < 1.e-11
    Iter = 7, relRef = 2.51292e-06, res = 1.0432e-05, resAbs = 1.08826e-10, nIters = 1, maxD = 0.00380348
    Solving
  0 KSP Residual norm 6.05895e-06 
  1 KSP Residual norm < 1.e-11
    Iter = 8, relRef = 8.47696e-07, res = 6.05895e-06, resAbs = 3.67109e-11, nIters = 1, maxD = 0.00380355
    Solving
  0 KSP Residual norm 3.54401e-06 
  1 KSP Residual norm < 1.e-11
    Iter = 9, relRef = 2.90025e-07, res = 3.54401e-06, resAbs = 1.256e-11, nIters = 1, maxD = 0.00380359
    Solving
  0 KSP Residual norm 2.09102e-06 
  1 KSP Residual norm < 1.e-11
    Iter = 10, relRef = 1.00963e-07, res = 2.09102e-06, resAbs = 4.37236e-12, nIters = 1, maxD = 0.00380361
    Solving
  0 KSP Residual norm 1.24704e-06 
  1 KSP Residual norm < 1.e-11
    Iter = 11, relRef = 3.59094e-08, res = 1.24704e-06, resAbs = 1.55512e-12, nIters = 1, maxD = 0.00380362
    Solving
  0 KSP Residual norm 7.53591e-07 
  1 KSP Residual norm < 1.e-11
    Iter = 12, relRef = 1.31135e-08, res = 7.53591e-07, resAbs = 5.679e-13, nIters = 1, maxD = 0.00380363
    Solving
  0 KSP Residual norm 4.62717e-07 
  1 KSP Residual norm < 1.e-11
    Iter = 13, relRef = 4.94399e-09, res = 4.62717e-07, resAbs = 2.14107e-13, nIters = 1, maxD = 0.00380364
    Solving
  0 KSP Residual norm 2.8949e-07 
  1 KSP Residual norm < 1.e-11
    Iter = 14, relRef = 1.93514e-09, res = 2.8949e-07, resAbs = 8.38045e-14, nIters = 1, maxD = 0.00380364
    Solving
  0 KSP Residual norm 1.84996e-07 
  1 KSP Residual norm < 1.e-11
    Iter = 15, relRef = 7.90262e-10, res = 1.84996e-07, resAbs = 3.42236e-14, nIters = 1, maxD = 0.00380364
    Solving
  0 KSP Residual norm 1.20963e-07 
  1 KSP Residual norm < 1.e-11
    Iter = 16, relRef = 3.37872e-10, res = 1.20963e-07, resAbs = 1.46321e-14, nIters = 1, maxD = 0.00380364
    Solving
  0 KSP Residual norm 8.09807e-08 
  1 KSP Residual norm < 1.e-11
    Iter = 17, relRef = 1.51429e-10, res = 8.09807e-08, resAbs = 6.55787e-15, nIters = 1, maxD = 0.00380364
    Solving
  0 KSP Residual norm 5.5474e-08 
  1 KSP Residual norm < 1.e-11
    Iter = 18, relRef = 7.106e-11, res = 5.5474e-08, resAbs = 3.07737e-15, nIters = 1, maxD = 0.00380364
    Converged
    Max DEpsilonPEq is 0.000393048
    55 cells (0.717454% of the cells in this material) are actively yielding

ExecutionTime = 68.75 s  ClockTime = 79 s

Time = 7.6

Evolving solid solver
    Assembling the matrix
    Solving
  0 KSP Residual norm 0.00660084 
  1 KSP Residual norm < 1.e-11
    Initial residual = 4.35711e-05
    Iter = 0, relRef = 1, res = 0.00660084, resAbs = 4.35711e-05, nIters = 1, maxD = 0.00390839
    Solving
  0 KSP Residual norm 0.000333602 
  1 KSP Residual norm < 1.e-11
    Iter = 1, relRef = 0.00255422, res = 0.000333602, resAbs = 1.1129e-07, nIters = 1, maxD = 0.00391213
    Solving
  0 KSP Residual norm 0.000201833 
  1 KSP Residual norm < 1.e-11
    Iter = 2, relRef = 0.000934947, res = 0.000201833, resAbs = 4.07366e-08, nIters = 1, maxD = 0.00391439
    Solving
  0 KSP Residual norm 0.000120528 
  1 KSP Residual norm < 1.e-11
    Iter = 3, relRef = 0.00033341, res = 0.000120528, resAbs = 1.4527e-08, nIters = 1, maxD = 0.00391573
    Solving
  0 KSP Residual norm 7.31479e-05 
  1 KSP Residual norm < 1.e-11
    Iter = 4, relRef = 0.000122802, res = 7.31479e-05, resAbs = 5.35061e-09, nIters = 1, maxD = 0.00391655
    Solving
  0 KSP Residual norm 4.4789e-05 
  1 KSP Residual norm < 1.e-11
    Iter = 5, relRef = 4.6041e-05, res = 4.4789e-05, resAbs = 2.00606e-09, nIters = 1, maxD = 0.00391705
    Solving
  0 KSP Residual norm 2.76351e-05 
  1 KSP Residual norm < 1.e-11
    Iter = 6, relRef = 1.75276e-05, res = 2.76351e-05, resAbs = 7.63697e-10, nIters = 1, maxD = 0.00391735
    Solving
  0 KSP Residual norm 1.73392e-05 
  1 KSP Residual norm < 1.e-11
    Iter = 7, relRef = 6.90021e-06, res = 1.73392e-05, resAbs = 3.00649e-10, nIters = 1, maxD = 0.00391755
    Solving
  0 KSP Residual norm 1.08626e-05 
  1 KSP Residual norm < 1.e-11
    Iter = 8, relRef = 2.70814e-06, res = 1.08626e-05, resAbs = 1.17996e-10, nIters = 1, maxD = 0.00391767
    Solving
  0 KSP Residual norm 6.77774e-06 
  1 KSP Residual norm < 1.e-11
    Iter = 9, relRef = 1.05432e-06, res = 6.77774e-06, resAbs = 4.59377e-11, nIters = 1, maxD = 0.00391774
    Solving
  0 KSP Residual norm 4.247e-06 
  1 KSP Residual norm < 1.e-11
    Iter = 10, relRef = 4.13967e-07, res = 4.247e-06, resAbs = 1.8037e-11, nIters = 1, maxD = 0.00391779
    Solving
  0 KSP Residual norm 2.67535e-06 
  1 KSP Residual norm < 1.e-11
    Iter = 11, relRef = 1.64272e-07, res = 2.67535e-06, resAbs = 7.15749e-12, nIters = 1, maxD = 0.00391782
    Solving
  0 KSP Residual norm 1.69602e-06 
  1 KSP Residual norm < 1.e-11
    Iter = 12, relRef = 6.60185e-08, res = 1.69602e-06, resAbs = 2.8765e-12, nIters = 1, maxD = 0.00391784
    Solving
  0 KSP Residual norm 1.0834e-06 
  1 KSP Residual norm < 1.e-11
    Iter = 13, relRef = 2.69388e-08, res = 1.0834e-06, resAbs = 1.17375e-12, nIters = 1, maxD = 0.00391785
    Solving
  0 KSP Residual norm 6.98386e-07 
  1 KSP Residual norm < 1.e-11
    Iter = 14, relRef = 1.11942e-08, res = 6.98386e-07, resAbs = 4.87743e-13, nIters = 1, maxD = 0.00391786
    Solving
  0 KSP Residual norm 4.55069e-07 
  1 KSP Residual norm < 1.e-11
    Iter = 15, relRef = 4.75287e-09, res = 4.55069e-07, resAbs = 2.07087e-13, nIters = 1, maxD = 0.00391786
    Solving
  0 KSP Residual norm 3.0026e-07 
  1 KSP Residual norm < 1.e-11
    Iter = 16, relRef = 2.06917e-09, res = 3.0026e-07, resAbs = 9.01559e-14, nIters = 1, maxD = 0.00391786
    Solving
  0 KSP Residual norm 2.00956e-07 
  1 KSP Residual norm < 1.e-11
    Iter = 17, relRef = 9.26839e-10, res = 2.00956e-07, resAbs = 4.03833e-14, nIters = 1, maxD = 0.00391787
    Solving
  0 KSP Residual norm 1.36626e-07 
  1 KSP Residual norm < 1.e-11
    Iter = 18, relRef = 4.28417e-10, res = 1.36626e-07, resAbs = 1.86666e-14, nIters = 1, maxD = 0.00391787
    Solving
  0 KSP Residual norm 9.4459e-08 
  1 KSP Residual norm < 1.e-11
    Iter = 19, relRef = 2.0478e-10, res = 9.4459e-08, resAbs = 8.9225e-15, nIters = 1, maxD = 0.00391787
    Solving
  0 KSP Residual norm 6.64387e-08 
  1 KSP Residual norm < 1.e-11
    Iter = 20, relRef = 1.01308e-10, res = 6.64387e-08, resAbs = 4.4141e-15, nIters = 1, maxD = 0.00391787
    Solving
  0 KSP Residual norm 4.75285e-08 
  1 KSP Residual norm < 1.e-11
    Iter = 21, relRef = 5.18453e-11, res = 4.75285e-08, resAbs = 2.25896e-15, nIters = 1, maxD = 0.00391787
    Converged
    Max DEpsilonPEq is 0.00040359
    64 cells (0.834855% of the cells in this material) are actively yielding

ExecutionTime = 74.69 s  ClockTime = 86 s

Time = 7.8

Evolving solid solver
    Assembling the matrix
    Solving
  0 KSP Residual norm 0.00664047 
  1 KSP Residual norm < 1.e-11
    Initial residual = 4.40959e-05
    Iter = 0, relRef = 1, res = 0.00664047, resAbs = 4.40959e-05, nIters = 1, maxD = 0.00402309
    Solving
  0 KSP Residual norm 0.000356886 
  1 KSP Residual norm < 1.e-11
    Iter = 1, relRef = 0.00288842, res = 0.000356886, resAbs = 1.27367e-07, nIters = 1, maxD = 0.0040271
    Solving
  0 KSP Residual norm 0.000211751 
  1 KSP Residual norm < 1.e-11
    Iter = 2, relRef = 0.00101684, res = 0.000211751, resAbs = 4.48387e-08, nIters = 1, maxD = 0.00402947
    Solving
  0 KSP Residual norm 0.000124355 
  1 KSP Residual norm < 1.e-11
    Iter = 3, relRef = 0.000350695, res = 0.000124355, resAbs = 1.54642e-08, nIters = 1, maxD = 0.00403086
    Solving
  0 KSP Residual norm 7.56279e-05 
  1 KSP Residual norm < 1.e-11
    Iter = 4, relRef = 0.000129708, res = 7.56279e-05, resAbs = 5.71958e-09, nIters = 1, maxD = 0.0040317
    Solving
  0 KSP Residual norm 4.63763e-05 
  1 KSP Residual norm < 1.e-11
    Iter = 5, relRef = 4.87746e-05, res = 4.63763e-05, resAbs = 2.15076e-09, nIters = 1, maxD = 0.00403222
    Solving
  0 KSP Residual norm 2.87421e-05 
  1 KSP Residual norm < 1.e-11
    Iter = 6, relRef = 1.87343e-05, res = 2.87421e-05, resAbs = 8.26106e-10, nIters = 1, maxD = 0.00403254
    Solving
  0 KSP Residual norm 1.80898e-05 
  1 KSP Residual norm < 1.e-11
    Iter = 7, relRef = 7.42114e-06, res = 1.80898e-05, resAbs = 3.27242e-10, nIters = 1, maxD = 0.00403274
    Solving
  0 KSP Residual norm 1.15269e-05 
  1 KSP Residual norm < 1.e-11
    Iter = 8, relRef = 3.0132e-06, res = 1.15269e-05, resAbs = 1.3287e-10, nIters = 1, maxD = 0.00403287
    Solving
  0 KSP Residual norm 7.30203e-06 
  1 KSP Residual norm < 1.e-11
    Iter = 9, relRef = 1.20917e-06, res = 7.30203e-06, resAbs = 5.33196e-11, nIters = 1, maxD = 0.00403295
    Solving
  0 KSP Residual norm 4.64824e-06 
  1 KSP Residual norm < 1.e-11
    Iter = 10, relRef = 4.89982e-07, res = 4.64824e-06, resAbs = 2.16062e-11, nIters = 1, maxD = 0.004033
    Solving
  0 KSP Residual norm 2.97821e-06 
  1 KSP Residual norm < 1.e-11
    Iter = 11, relRef = 2.01146e-07, res = 2.97821e-06, resAbs = 8.86971e-12, nIters = 1, maxD = 0.00403303
    Solving
  0 KSP Residual norm 1.92265e-06 
  1 KSP Residual norm < 1.e-11
    Iter = 12, relRef = 8.38306e-08, res = 1.92265e-06, resAbs = 3.69658e-12, nIters = 1, maxD = 0.00403305
    Solving
  0 KSP Residual norm 1.25207e-06 
  1 KSP Residual norm < 1.e-11
    Iter = 13, relRef = 3.55513e-08, res = 1.25207e-06, resAbs = 1.56767e-12, nIters = 1, maxD = 0.00403307
    Solving
  0 KSP Residual norm 8.23572e-07 
  1 KSP Residual norm < 1.e-11
    Iter = 14, relRef = 1.53817e-08, res = 8.23572e-07, resAbs = 6.78271e-13, nIters = 1, maxD = 0.00403308
    Solving
  0 KSP Residual norm 5.4795e-07 
  1 KSP Residual norm < 1.e-11
    Iter = 15, relRef = 6.80901e-09, res = 5.4795e-07, resAbs = 3.0025e-13, nIters = 1, maxD = 0.00403308
    Solving
  0 KSP Residual norm 3.69293e-07 
  1 KSP Residual norm < 1.e-11
    Iter = 16, relRef = 3.09274e-09, res = 3.69293e-07, resAbs = 1.36377e-13, nIters = 1, maxD = 0.00403309
    Solving
  0 KSP Residual norm 2.52445e-07 
  1 KSP Residual norm < 1.e-11
    Iter = 17, relRef = 1.44523e-09, res = 2.52445e-07, resAbs = 6.37286e-14, nIters = 1, maxD = 0.00403309
    Solving
  0 KSP Residual norm 1.75224e-07 
  1 KSP Residual norm < 1.e-11
    Iter = 18, relRef = 6.96285e-10, res = 1.75224e-07, resAbs = 3.07033e-14, nIters = 1, maxD = 0.00403309
    Solving
  0 KSP Residual norm 1.23575e-07 
  1 KSP Residual norm < 1.e-11
    Iter = 19, relRef = 3.46308e-10, res = 1.23575e-07, resAbs = 1.52707e-14, nIters = 1, maxD = 0.00403309
    Solving
  0 KSP Residual norm 8.85607e-08 
  1 KSP Residual norm < 1.e-11
    Iter = 20, relRef = 1.77862e-10, res = 8.85607e-08, resAbs = 7.843e-15, nIters = 1, maxD = 0.00403309
    Solving
  0 KSP Residual norm 6.4469e-08 
  1 KSP Residual norm < 1.e-11
    Iter = 21, relRef = 9.42548e-11, res = 6.4469e-08, resAbs = 4.15625e-15, nIters = 1, maxD = 0.00403309
    Converged
    Max DEpsilonPEq is 0.000417808
    68 cells (0.887034% of the cells in this material) are actively yielding

ExecutionTime = 80.41 s  ClockTime = 92 s

Time = 8

Evolving solid solver
    Assembling the matrix
    Solving
  0 KSP Residual norm 0.00665515 
  1 KSP Residual norm < 1.e-11
    Initial residual = 4.4291e-05
    Iter = 0, relRef = 1, res = 0.00665515, resAbs = 4.4291e-05, nIters = 1, maxD = 0.00413849
    Solving
  0 KSP Residual norm 0.000387996 
  1 KSP Residual norm < 1.e-11
    Iter = 1, relRef = 0.0033989, res = 0.000387996, resAbs = 1.50541e-07, nIters = 1, maxD = 0.00414286
    Solving
  0 KSP Residual norm 0.000242231 
  1 KSP Residual norm < 1.e-11
    Iter = 2, relRef = 0.00132478, res = 0.000242231, resAbs = 5.8676e-08, nIters = 1, maxD = 0.00414557
    Solving
  0 KSP Residual norm 0.0001493 
  1 KSP Residual norm < 1.e-11
    Iter = 3, relRef = 0.000503271, res = 0.0001493, resAbs = 2.22904e-08, nIters = 1, maxD = 0.00414724
    Solving
  0 KSP Residual norm 9.42855e-05 
  1 KSP Residual norm < 1.e-11
    Iter = 4, relRef = 0.000200712, res = 9.42855e-05, resAbs = 8.88975e-09, nIters = 1, maxD = 0.0041483
    Solving
  0 KSP Residual norm 6.02229e-05 
  1 KSP Residual norm < 1.e-11
    Iter = 5, relRef = 8.18857e-05, res = 6.02229e-05, resAbs = 3.6268e-09, nIters = 1, maxD = 0.00414897
    Solving
  0 KSP Residual norm 3.87965e-05 
  1 KSP Residual norm < 1.e-11
    Iter = 6, relRef = 3.39836e-05, res = 3.87965e-05, resAbs = 1.50517e-09, nIters = 1, maxD = 0.0041494
    Solving
  0 KSP Residual norm 2.52167e-05 
  1 KSP Residual norm < 1.e-11
    Iter = 7, relRef = 1.43569e-05, res = 2.52167e-05, resAbs = 6.35882e-10, nIters = 1, maxD = 0.00414968
    Solving
  0 KSP Residual norm 1.64376e-05 
  1 KSP Residual norm < 1.e-11
    Iter = 8, relRef = 6.10044e-06, res = 1.64376e-05, resAbs = 2.70195e-10, nIters = 1, maxD = 0.00414986
    Solving
  0 KSP Residual norm 1.07316e-05 
  1 KSP Residual norm < 1.e-11
    Iter = 9, relRef = 2.60025e-06, res = 1.07316e-05, resAbs = 1.15168e-10, nIters = 1, maxD = 0.00414998
    Solving
  0 KSP Residual norm 7.03669e-06 
  1 KSP Residual norm < 1.e-11
    Iter = 10, relRef = 1.11795e-06, res = 7.03669e-06, resAbs = 4.9515e-11, nIters = 1, maxD = 0.00415006
    Solving
  0 KSP Residual norm 4.63382e-06 
  1 KSP Residual norm < 1.e-11
    Iter = 11, relRef = 4.848e-07, res = 4.63382e-06, resAbs = 2.14723e-11, nIters = 1, maxD = 0.00415011
    Solving
  0 KSP Residual norm 3.06503e-06 
  1 KSP Residual norm < 1.e-11
    Iter = 12, relRef = 2.12106e-07, res = 3.06503e-06, resAbs = 9.39441e-12, nIters = 1, maxD = 0.00415015
    Solving
  0 KSP Residual norm 2.03706e-06 
  1 KSP Residual norm < 1.e-11
    Iter = 13, relRef = 9.36899e-08, res = 2.03706e-06, resAbs = 4.14962e-12, nIters = 1, maxD = 0.00415017
    Solving
  0 KSP Residual norm 1.36109e-06 
  1 KSP Residual norm < 1.e-11
    Iter = 14, relRef = 4.18272e-08, res = 1.36109e-06, resAbs = 1.85257e-12, nIters = 1, maxD = 0.00415018
    Solving
  0 KSP Residual norm 9.14983e-07 
  1 KSP Residual norm < 1.e-11
    Iter = 15, relRef = 1.89021e-08, res = 9.14983e-07, resAbs = 8.37194e-13, nIters = 1, maxD = 0.00415019
    Solving
  0 KSP Residual norm 6.19441e-07 
  1 KSP Residual norm < 1.e-11
    Iter = 16, relRef = 8.66331e-09, res = 6.19441e-07, resAbs = 3.83707e-13, nIters = 1, maxD = 0.0041502
    Solving
  0 KSP Residual norm 4.22812e-07 
  1 KSP Residual norm < 1.e-11
    Iter = 17, relRef = 4.03627e-09, res = 4.22812e-07, resAbs = 1.7877e-13, nIters = 1, maxD = 0.00415021
    Solving
  0 KSP Residual norm 2.91355e-07 
  1 KSP Residual norm < 1.e-11
    Iter = 18, relRef = 1.9166e-09, res = 2.91355e-07, resAbs = 8.4888e-14, nIters = 1, maxD = 0.00415021
    Solving
  0 KSP Residual norm 2.02968e-07 
  1 KSP Residual norm < 1.e-11
    Iter = 19, relRef = 9.30124e-10, res = 2.02968e-07, resAbs = 4.11961e-14, nIters = 1, maxD = 0.00415021
    Solving
  0 KSP Residual norm 1.43137e-07 
  1 KSP Residual norm < 1.e-11
    Iter = 20, relRef = 4.62582e-10, res = 1.43137e-07, resAbs = 2.04882e-14, nIters = 1, maxD = 0.00415021
    Solving
  0 KSP Residual norm 1.02308e-07 
  1 KSP Residual norm < 1.e-11
    Iter = 21, relRef = 2.36321e-10, res = 1.02308e-07, resAbs = 1.04669e-14, nIters = 1, maxD = 0.00415021
    Solving
  0 KSP Residual norm 7.41764e-08 
  1 KSP Residual norm < 1.e-11
    Iter = 22, relRef = 1.24227e-10, res = 7.41764e-08, resAbs = 5.50214e-15, nIters = 1, maxD = 0.00415021
    Solving
  0 KSP Residual norm 5.45742e-08 
  1 KSP Residual norm < 1.e-11
    Iter = 23, relRef = 6.72449e-11, res = 5.45742e-08, resAbs = 2.97835e-15, nIters = 1, maxD = 0.00415021
    Converged
    Max DEpsilonPEq is 0.000442446
    74 cells (0.965301% of the cells in this material) are actively yielding

Max pEpsilonEq = 0.00809827
Max epsilonEq = 0.00798482
Max sigmaEq (von Mises stress) = 2.43e+08
ExecutionTime = 86.87 s  ClockTime = 100 s

Time = 8.2

Evolving solid solver
    Assembling the matrix
    Solving
  0 KSP Residual norm 0.00668119 
  1 KSP Residual norm < 1.e-11
    Initial residual = 4.46384e-05
    Iter = 0, relRef = 1, res = 0.00668119, resAbs = 4.46384e-05, nIters = 1, maxD = 0.00425592
    Solving
  0 KSP Residual norm 0.000417448 
  1 KSP Residual norm < 1.e-11
    Iter = 1, relRef = 0.00390388, res = 0.000417448, resAbs = 1.74263e-07, nIters = 1, maxD = 0.00426063
    Solving
  0 KSP Residual norm 0.000265919 
  1 KSP Residual norm < 1.e-11
    Iter = 2, relRef = 0.00158412, res = 0.000265919, resAbs = 7.07127e-08, nIters = 1, maxD = 0.00426362
    Solving
  0 KSP Residual norm 0.000165503 
  1 KSP Residual norm < 1.e-11
    Iter = 3, relRef = 0.000613629, res = 0.000165503, resAbs = 2.73914e-08, nIters = 1, maxD = 0.00426547
    Solving
  0 KSP Residual norm 0.000104805 
  1 KSP Residual norm < 1.e-11
    Iter = 4, relRef = 0.000246066, res = 0.000104805, resAbs = 1.0984e-08, nIters = 1, maxD = 0.00426665
    Solving
  0 KSP Residual norm 6.70258e-05 
  1 KSP Residual norm < 1.e-11
    Iter = 5, relRef = 0.000100641, res = 6.70258e-05, resAbs = 4.49246e-09, nIters = 1, maxD = 0.0042674
    Solving
  0 KSP Residual norm 4.34912e-05 
  1 KSP Residual norm < 1.e-11
    Iter = 6, relRef = 4.23735e-05, res = 4.34912e-05, resAbs = 1.89148e-09, nIters = 1, maxD = 0.00426788
    Solving
  0 KSP Residual norm 2.84581e-05 
  1 KSP Residual norm < 1.e-11
    Iter = 7, relRef = 1.81427e-05, res = 2.84581e-05, resAbs = 8.09861e-10, nIters = 1, maxD = 0.0042682
    Solving
  0 KSP Residual norm 1.87652e-05 
  1 KSP Residual norm < 1.e-11
    Iter = 8, relRef = 7.88857e-06, res = 1.87652e-05, resAbs = 3.52133e-10, nIters = 1, maxD = 0.0042684
    Solving
  0 KSP Residual norm 1.24778e-05 
  1 KSP Residual norm < 1.e-11
    Iter = 9, relRef = 3.48792e-06, res = 1.24778e-05, resAbs = 1.55695e-10, nIters = 1, maxD = 0.00426854
    Solving
  0 KSP Residual norm 8.36976e-06 
  1 KSP Residual norm < 1.e-11
    Iter = 10, relRef = 1.56934e-06, res = 8.36976e-06, resAbs = 7.00529e-11, nIters = 1, maxD = 0.00426863
    Solving
  0 KSP Residual norm 5.66565e-06 
  1 KSP Residual norm < 1.e-11
    Iter = 11, relRef = 7.19102e-07, res = 5.66565e-06, resAbs = 3.20995e-11, nIters = 1, maxD = 0.0042687
    Solving
  0 KSP Residual norm 3.99324e-06 
  1 KSP Residual norm < 1.e-11
    Iter = 12, relRef = 3.57226e-07, res = 3.99324e-06, resAbs = 1.5946e-11, nIters = 1, maxD = 0.00426874
    Solving
  0 KSP Residual norm 2.79128e-06 
  1 KSP Residual norm < 1.e-11
    Iter = 13, relRef = 1.74542e-07, res = 2.79128e-06, resAbs = 7.79126e-12, nIters = 1, maxD = 0.00426877
    Solving
  0 KSP Residual norm 1.95895e-06 
  1 KSP Residual norm < 1.e-11
    Iter = 14, relRef = 8.5968e-08, res = 1.95895e-06, resAbs = 3.83747e-12, nIters = 1, maxD = 0.00426879
    Solving
  0 KSP Residual norm 1.38359e-06 
  1 KSP Residual norm < 1.e-11
    Iter = 15, relRef = 4.28849e-08, res = 1.38359e-06, resAbs = 1.91431e-12, nIters = 1, maxD = 0.00426881
    Solving
  0 KSP Residual norm 9.84193e-07 
  1 KSP Residual norm < 1.e-11
    Iter = 16, relRef = 2.16996e-08, res = 9.84193e-07, resAbs = 9.68635e-13, nIters = 1, maxD = 0.00426882
    Solving
  0 KSP Residual norm 7.05422e-07 
  1 KSP Residual norm < 1.e-11
    Iter = 17, relRef = 1.11478e-08, res = 7.05422e-07, resAbs = 4.9762e-13, nIters = 1, maxD = 0.00426883
    Solving
  0 KSP Residual norm 5.09614e-07 
  1 KSP Residual norm < 1.e-11
    Iter = 18, relRef = 5.81801e-09, res = 5.09614e-07, resAbs = 2.59707e-13, nIters = 1, maxD = 0.00426883
    Solving
  0 KSP Residual norm 3.71134e-07 
  1 KSP Residual norm < 1.e-11
    Iter = 19, relRef = 3.0857e-09, res = 3.71134e-07, resAbs = 1.37741e-13, nIters = 1, maxD = 0.00426883
    Solving
  0 KSP Residual norm 2.72487e-07 
  1 KSP Residual norm < 1.e-11
    Iter = 20, relRef = 1.66335e-09, res = 2.72487e-07, resAbs = 7.4249e-14, nIters = 1, maxD = 0.00426884
    Solving
  0 KSP Residual norm 2.01684e-07 
  1 KSP Residual norm < 1.e-11
    Iter = 21, relRef = 9.11242e-10, res = 2.01684e-07, resAbs = 4.06763e-14, nIters = 1, maxD = 0.00426884
    Solving
  0 KSP Residual norm 1.50473e-07 
  1 KSP Residual norm < 1.e-11
    Iter = 22, relRef = 5.07233e-10, res = 1.50473e-07, resAbs = 2.2642e-14, nIters = 1, maxD = 0.00426884
    Solving
  0 KSP Residual norm 1.13142e-07 
  1 KSP Residual norm < 1.e-11
    Iter = 23, relRef = 2.86772e-10, res = 1.13142e-07, resAbs = 1.2801e-14, nIters = 1, maxD = 0.00426884
    Solving
  0 KSP Residual norm 8.5714e-08 
  1 KSP Residual norm < 1.e-11
    Iter = 24, relRef = 1.64587e-10, res = 8.5714e-08, resAbs = 7.34689e-15, nIters = 1, maxD = 0.00426884
    Solving
  0 KSP Residual norm 6.54043e-08 
  1 KSP Residual norm < 1.e-11
    Iter = 25, relRef = 9.58308e-11, res = 6.54043e-08, resAbs = 4.27773e-15, nIters = 1, maxD = 0.00426884
    Converged
    Max DEpsilonPEq is 0.000450459
    82 cells (1.06966% of the cells in this material) are actively yielding

ExecutionTime = 93.64 s  ClockTime = 107 s

Time = 8.4

Evolving solid solver
    Assembling the matrix
    Solving
  0 KSP Residual norm 0.00670724 
  1 KSP Residual norm < 1.e-11
    Initial residual = 4.4987e-05
    Iter = 0, relRef = 1, res = 0.00670724, resAbs = 4.4987e-05, nIters = 1, maxD = 0.00437486
    Solving
  0 KSP Residual norm 0.000457765 
  1 KSP Residual norm < 1.e-11
    Iter = 1, relRef = 0.00465799, res = 0.000457765, resAbs = 2.09549e-07, nIters = 1, maxD = 0.00438004
    Solving
  0 KSP Residual norm 0.000300658 
  1 KSP Residual norm < 1.e-11
    Iter = 2, relRef = 0.00200936, res = 0.000300658, resAbs = 9.0395e-08, nIters = 1, maxD = 0.00438343
    Solving
  0 KSP Residual norm 0.000193014 
  1 KSP Residual norm < 1.e-11
    Iter = 3, relRef = 0.000828115, res = 0.000193014, resAbs = 3.72545e-08, nIters = 1, maxD = 0.0043856
    Solving
  0 KSP Residual norm 0.000125629 
  1 KSP Residual norm < 1.e-11
    Iter = 4, relRef = 0.000350826, res = 0.000125629, resAbs = 1.57826e-08, nIters = 1, maxD = 0.00438701
    Solving
  0 KSP Residual norm 8.22384e-05 
  1 KSP Residual norm < 1.e-11
    Iter = 5, relRef = 0.000150336, res = 8.22384e-05, resAbs = 6.76316e-09, nIters = 1, maxD = 0.00438794
    Solving
  0 KSP Residual norm 5.40957e-05 
  1 KSP Residual norm < 1.e-11
    Iter = 6, relRef = 6.50487e-05, res = 5.40957e-05, resAbs = 2.92635e-09, nIters = 1, maxD = 0.00438854
    Solving
  0 KSP Residual norm 3.57243e-05 
  1 KSP Residual norm < 1.e-11
    Iter = 7, relRef = 2.83688e-05, res = 3.57243e-05, resAbs = 1.27623e-09, nIters = 1, maxD = 0.00438894
    Solving
  0 KSP Residual norm 2.3679e-05 
  1 KSP Residual norm < 1.e-11
    Iter = 8, relRef = 1.24635e-05, res = 2.3679e-05, resAbs = 5.60695e-10, nIters = 1, maxD = 0.00438921
    Solving
  0 KSP Residual norm 1.57544e-05 
  1 KSP Residual norm < 1.e-11
    Iter = 9, relRef = 5.51715e-06, res = 1.57544e-05, resAbs = 2.482e-10, nIters = 1, maxD = 0.00438938
    Solving
  0 KSP Residual norm 1.05256e-05 
  1 KSP Residual norm < 1.e-11
    Iter = 10, relRef = 2.46268e-06, res = 1.05256e-05, resAbs = 1.10789e-10, nIters = 1, maxD = 0.0043895
    Solving
  0 KSP Residual norm 7.06622e-06 
  1 KSP Residual norm < 1.e-11
    Iter = 11, relRef = 1.10991e-06, res = 7.06622e-06, resAbs = 4.99315e-11, nIters = 1, maxD = 0.00438958
    Solving
  0 KSP Residual norm 4.77103e-06 
  1 KSP Residual norm < 1.e-11
    Iter = 12, relRef = 5.05985e-07, res = 4.77103e-06, resAbs = 2.27628e-11, nIters = 1, maxD = 0.00438963
    Solving
  0 KSP Residual norm 3.24357e-06 
  1 KSP Residual norm < 1.e-11
    Iter = 13, relRef = 2.33861e-07, res = 3.24357e-06, resAbs = 1.05207e-11, nIters = 1, maxD = 0.00438967
    Solving
  0 KSP Residual norm 2.22342e-06 
  1 KSP Residual norm < 1.e-11
    Iter = 14, relRef = 1.0989e-07, res = 2.22342e-06, resAbs = 4.9436e-12, nIters = 1, maxD = 0.00438969
    Solving
  0 KSP Residual norm 1.53921e-06 
  1 KSP Residual norm < 1.e-11
    Iter = 15, relRef = 5.26636e-08, res = 1.53921e-06, resAbs = 2.36918e-12, nIters = 1, maxD = 0.00438971
    Solving
  0 KSP Residual norm 1.07795e-06 
  1 KSP Residual norm < 1.e-11
    Iter = 16, relRef = 2.5829e-08, res = 1.07795e-06, resAbs = 1.16197e-12, nIters = 1, maxD = 0.00438972
    Solving
  0 KSP Residual norm 7.64994e-07 
  1 KSP Residual norm < 1.e-11
    Iter = 17, relRef = 1.30086e-08, res = 7.64994e-07, resAbs = 5.85216e-13, nIters = 1, maxD = 0.00438973
    Solving
  0 KSP Residual norm 5.50981e-07 
  1 KSP Residual norm < 1.e-11
    Iter = 18, relRef = 6.74816e-09, res = 5.50981e-07, resAbs = 3.0358e-13, nIters = 1, maxD = 0.00438973
    Solving
  0 KSP Residual norm 4.03194e-07 
  1 KSP Residual norm < 1.e-11
    Iter = 19, relRef = 3.6136e-09, res = 4.03194e-07, resAbs = 1.62565e-13, nIters = 1, maxD = 0.00438974
    Solving
  0 KSP Residual norm 2.99929e-07 
  1 KSP Residual norm < 1.e-11
    Iter = 20, relRef = 1.99964e-09, res = 2.99929e-07, resAbs = 8.99577e-14, nIters = 1, maxD = 0.00438974
    Solving
  0 KSP Residual norm 2.2677e-07 
  1 KSP Residual norm < 1.e-11
    Iter = 21, relRef = 1.1431e-09, res = 2.2677e-07, resAbs = 5.14248e-14, nIters = 1, maxD = 0.00438974
    Solving
  0 KSP Residual norm 1.74126e-07 
  1 KSP Residual norm < 1.e-11
    Iter = 22, relRef = 6.73972e-10, res = 1.74126e-07, resAbs = 3.032e-14, nIters = 1, maxD = 0.00438974
    Solving
  0 KSP Residual norm 1.35605e-07 
  1 KSP Residual norm < 1.e-11
    Iter = 23, relRef = 4.08758e-10, res = 1.35605e-07, resAbs = 1.83888e-14, nIters = 1, maxD = 0.00438974
    Solving
  0 KSP Residual norm 1.06932e-07 
  1 KSP Residual norm < 1.e-11
    Iter = 24, relRef = 2.5417e-10, res = 1.06932e-07, resAbs = 1.14343e-14, nIters = 1, maxD = 0.00438974
    Solving
  0 KSP Residual norm 8.52281e-08 
  1 KSP Residual norm < 1.e-11
    Iter = 25, relRef = 1.61465e-10, res = 8.52281e-08, resAbs = 7.26383e-15, nIters = 1, maxD = 0.00438975
    Solving
  0 KSP Residual norm 6.85422e-08 
  1 KSP Residual norm < 1.e-11
    Iter = 26, relRef = 1.04431e-10, res = 6.85422e-08, resAbs = 4.69803e-15, nIters = 1, maxD = 0.00438975
    Solving
  0 KSP Residual norm 5.55324e-08 
  1 KSP Residual norm < 1.e-11
    Iter = 27, relRef = 6.85496e-11, res = 5.55324e-08, resAbs = 3.08384e-15, nIters = 1, maxD = 0.00438975
    Converged
    Max DEpsilonPEq is 0.000467879
    93 cells (1.21315% of the cells in this material) are actively yielding

ExecutionTime = 101.03 s  ClockTime = 115 s

Time = 8.6

Evolving solid solver
    Assembling the matrix
    Solving
  0 KSP Residual norm 0.00675039 
  1 KSP Residual norm < 1.e-11
    Initial residual = 4.55678e-05
    Iter = 0, relRef = 1, res = 0.00675039, resAbs = 4.55678e-05, nIters = 1, maxD = 0.00449628
    Solving
  0 KSP Residual norm 0.000488726 
  1 KSP Residual norm < 1.e-11
    Iter = 1, relRef = 0.00524172, res = 0.000488726, resAbs = 2.38853e-07, nIters = 1, maxD = 0.00450182
    Solving
  0 KSP Residual norm 0.000324636 
  1 KSP Residual norm < 1.e-11
    Iter = 2, relRef = 0.00231279, res = 0.000324636, resAbs = 1.05388e-07, nIters = 1, maxD = 0.00450548
    Solving
  0 KSP Residual norm 0.000210206 
  1 KSP Residual norm < 1.e-11
    Iter = 3, relRef = 0.000969689, res = 0.000210206, resAbs = 4.41866e-08, nIters = 1, maxD = 0.00450785
    Solving
  0 KSP Residual norm 0.000139416 
  1 KSP Residual norm < 1.e-11
    Iter = 4, relRef = 0.000426545, res = 0.000139416, resAbs = 1.94367e-08, nIters = 1, maxD = 0.00450942
    Solving
  0 KSP Residual norm 9.31627e-05 
  1 KSP Residual norm < 1.e-11
    Iter = 5, relRef = 0.00019047, res = 9.31627e-05, resAbs = 8.67928e-09, nIters = 1, maxD = 0.00451047
    Solving
  0 KSP Residual norm 6.26558e-05 
  1 KSP Residual norm < 1.e-11
    Iter = 6, relRef = 8.61519e-05, res = 6.26558e-05, resAbs = 3.92575e-09, nIters = 1, maxD = 0.00451118
    Solving
  0 KSP Residual norm 4.22898e-05 
  1 KSP Residual norm < 1.e-11
    Iter = 7, relRef = 3.92476e-05, res = 4.22898e-05, resAbs = 1.78843e-09, nIters = 1, maxD = 0.00451166
    Solving
  0 KSP Residual norm 2.88051e-05 
  1 KSP Residual norm < 1.e-11
    Iter = 8, relRef = 1.82088e-05, res = 2.88051e-05, resAbs = 8.29736e-10, nIters = 1, maxD = 0.00451198
    Solving
  0 KSP Residual norm 1.96762e-05 
  1 KSP Residual norm < 1.e-11
    Iter = 9, relRef = 8.49618e-06, res = 1.96762e-05, resAbs = 3.87152e-10, nIters = 1, maxD = 0.0045122
    Solving
  0 KSP Residual norm 1.34886e-05 
  1 KSP Residual norm < 1.e-11
    Iter = 10, relRef = 3.99277e-06, res = 1.34886e-05, resAbs = 1.81942e-10, nIters = 1, maxD = 0.00451235
    Solving
  0 KSP Residual norm 9.28188e-06 
  1 KSP Residual norm < 1.e-11
    Iter = 11, relRef = 1.89066e-06, res = 9.28188e-06, resAbs = 8.61534e-11, nIters = 1, maxD = 0.00451245
    Solving
  0 KSP Residual norm 6.41366e-06 
  1 KSP Residual norm < 1.e-11
    Iter = 12, relRef = 9.02723e-07, res = 6.41366e-06, resAbs = 4.11351e-11, nIters = 1, maxD = 0.00451253
    Solving
  0 KSP Residual norm 4.45244e-06 
  1 KSP Residual norm < 1.e-11
    Iter = 13, relRef = 4.35048e-07, res = 4.45244e-06, resAbs = 1.98242e-11, nIters = 1, maxD = 0.00451258
    Solving
  0 KSP Residual norm 3.10739e-06 
  1 KSP Residual norm < 1.e-11
[...]
    Max DEpsilonPEq is 0
    0 cells (0% of the cells in this material) are actively yielding

ExecutionTime = 250.22 s  ClockTime = 281 s

Time = 14.4

Evolving solid solver
    Assembling the matrix
    Solving
  0 KSP Residual norm 0.00629479 
  1 KSP Residual norm < 1.e-11
    Initial residual = 3.96243e-05
    Iter = 0, relRef = 1, res = 0.00629479, resAbs = 3.96243e-05, nIters = 1, maxD = 0.003269
    Solving
  0 KSP Residual norm < 1.e-11
    Iter = 1, relRef = 0, res = 0, resAbs = 0, nIters = 0, maxD = 0.003269
    Converged
    Max DEpsilonPEq is 0
    0 cells (0% of the cells in this material) are actively yielding

ExecutionTime = 250.84 s  ClockTime = 282 s

Time = 14.6

Evolving solid solver
    Assembling the matrix
    Solving
  0 KSP Residual norm 0.00629479 
  1 KSP Residual norm < 1.e-11
    Initial residual = 3.96243e-05
    Iter = 0, relRef = 1, res = 0.00629479, resAbs = 3.96243e-05, nIters = 1, maxD = 0.00316788
    Solving
  0 KSP Residual norm < 1.e-11
    Iter = 1, relRef = 0, res = 0, resAbs = 0, nIters = 0, maxD = 0.00316788
    Converged
    Max DEpsilonPEq is 0
    0 cells (0% of the cells in this material) are actively yielding

ExecutionTime = 251.5 s  ClockTime = 283 s

Time = 14.8

Evolving solid solver
    Assembling the matrix
    Solving
  0 KSP Residual norm 0.00629479 
  1 KSP Residual norm < 1.e-11
    Initial residual = 3.96243e-05
    Iter = 0, relRef = 1, res = 0.00629479, resAbs = 3.96243e-05, nIters = 1, maxD = 0.00306676
    Solving
  0 KSP Residual norm < 1.e-11
    Iter = 1, relRef = 0, res = 0, resAbs = 0, nIters = 0, maxD = 0.00306676
    Converged
    Max DEpsilonPEq is 0
    0 cells (0% of the cells in this material) are actively yielding

ExecutionTime = 252.24 s  ClockTime = 284 s

Time = 15

Evolving solid solver
    Assembling the matrix
    Solving
  0 KSP Residual norm 0.00629479 
  1 KSP Residual norm < 1.e-11
    Initial residual = 3.96243e-05
    Iter = 0, relRef = 1, res = 0.00629479, resAbs = 3.96243e-05, nIters = 1, maxD = 0.00296563
    Solving
  0 KSP Residual norm < 1.e-11
    Iter = 1, relRef = 0, res = 0, resAbs = 0, nIters = 0, maxD = 0.00296563
    Converged
    Max DEpsilonPEq is 0
    0 cells (0% of the cells in this material) are actively yielding

Max pEpsilonEq = 0.0114407
Max epsilonEq = 0.0116243
Max sigmaEq (von Mises stress) = 1.50152e+08
ExecutionTime = 253.08 s  ClockTime = 285 s

Time = 15.2

Evolving solid solver
    Assembling the matrix
    Solving
  0 KSP Residual norm 0.00629479 
  1 KSP Residual norm < 1.e-11
    Initial residual = 3.96243e-05
    Iter = 0, relRef = 1, res = 0.00629479, resAbs = 3.96243e-05, nIters = 1, maxD = 0.00286451
    Solving
  0 KSP Residual norm < 1.e-11
    Iter = 1, relRef = 0, res = 0, resAbs = 0, nIters = 0, maxD = 0.00286451
    Converged
    Max DEpsilonPEq is 0
    0 cells (0% of the cells in this material) are actively yielding

ExecutionTime = 253.75 s  ClockTime = 285 s

Time = 15.4

Evolving solid solver
    Assembling the matrix
    Solving
  0 KSP Residual norm 0.00629479 
  1 KSP Residual norm < 1.e-11
    Initial residual = 3.96243e-05
    Iter = 0, relRef = 1, res = 0.00629479, resAbs = 3.96243e-05, nIters = 1, maxD = 0.00276339
    Solving
  0 KSP Residual norm < 1.e-11
    Iter = 1, relRef = 0, res = 0, resAbs = 0, nIters = 0, maxD = 0.00276339
    Converged
    Max DEpsilonPEq is 0
    0 cells (0% of the cells in this material) are actively yielding

ExecutionTime = 254.4 s  ClockTime = 286 s

Time = 15.6

Evolving solid solver
    Assembling the matrix
    Solving
  0 KSP Residual norm 0.00629479 
  1 KSP Residual norm < 1.e-11
    Initial residual = 3.96243e-05
    Iter = 0, relRef = 1, res = 0.00629479, resAbs = 3.96243e-05, nIters = 1, maxD = 0.00266227
    Solving
  0 KSP Residual norm < 1.e-11
    Iter = 1, relRef = 0, res = 0, resAbs = 0, nIters = 0, maxD = 0.00266227
    Converged
    Max DEpsilonPEq is 0
    0 cells (0% of the cells in this material) are actively yielding

ExecutionTime = 255.08 s  ClockTime = 287 s

Time = 15.8

Evolving solid solver
    Assembling the matrix
    Solving
  0 KSP Residual norm 0.00629479 
  1 KSP Residual norm < 1.e-11
    Initial residual = 3.96243e-05
    Iter = 0, relRef = 1, res = 0.00629479, resAbs = 3.96243e-05, nIters = 1, maxD = 0.00256115
    Solving
  0 KSP Residual norm < 1.e-11
    Iter = 1, relRef = 0, res = 0, resAbs = 0, nIters = 0, maxD = 0.00256115
    Converged
    Max DEpsilonPEq is 0
    0 cells (0% of the cells in this material) are actively yielding

ExecutionTime = 255.72 s  ClockTime = 288 s

Time = 16

Evolving solid solver
    Assembling the matrix
    Solving
  0 KSP Residual norm 0.00629479 
  1 KSP Residual norm < 1.e-11
    Initial residual = 3.96243e-05
    Iter = 0, relRef = 1, res = 0.00629479, resAbs = 3.96243e-05, nIters = 1, maxD = 0.00246003
    Solving
  0 KSP Residual norm < 1.e-11
    Iter = 1, relRef = 0, res = 0, resAbs = 0, nIters = 0, maxD = 0.00246003
    Converged
    Max DEpsilonPEq is 0
    0 cells (0% of the cells in this material) are actively yielding

Max pEpsilonEq = 0.0108462
Max epsilonEq = 0.0110632
Max sigmaEq (von Mises stress) = 1.31641e+08
ExecutionTime = 256.58 s  ClockTime = 288 s

Time = 16.2

Evolving solid solver
    Assembling the matrix
    Solving
  0 KSP Residual norm 0.00629479 
  1 KSP Residual norm < 1.e-11
    Initial residual = 3.96243e-05
    Iter = 0, relRef = 1, res = 0.00629479, resAbs = 3.96243e-05, nIters = 1, maxD = 0.00235891
    Solving
  0 KSP Residual norm < 1.e-11
    Iter = 1, relRef = 0, res = 0, resAbs = 0, nIters = 0, maxD = 0.00235891
    Converged
    Max DEpsilonPEq is 0
    0 cells (0% of the cells in this material) are actively yielding

ExecutionTime = 257.28 s  ClockTime = 289 s

Time = 16.4

Evolving solid solver
    Assembling the matrix
    Solving
  0 KSP Residual norm 0.00629479 
  1 KSP Residual norm < 1.e-11
    Initial residual = 3.96243e-05
    Iter = 0, relRef = 1, res = 0.00629479, resAbs = 3.96243e-05, nIters = 1, maxD = 0.00225779
    Solving
  0 KSP Residual norm < 1.e-11
    Iter = 1, relRef = 0, res = 0, resAbs = 0, nIters = 0, maxD = 0.00225779
    Converged
    Max DEpsilonPEq is 0
    0 cells (0% of the cells in this material) are actively yielding

ExecutionTime = 258 s  ClockTime = 290 s

Time = 16.6

Evolving solid solver
    Assembling the matrix
    Solving
  0 KSP Residual norm 0.00629479 
  1 KSP Residual norm < 1.e-11
    Initial residual = 3.96243e-05
    Iter = 0, relRef = 1, res = 0.00629479, resAbs = 3.96243e-05, nIters = 1, maxD = 0.00215667
    Solving
  0 KSP Residual norm < 1.e-11
    Iter = 1, relRef = 0, res = 0, resAbs = 0, nIters = 0, maxD = 0.00215667
    Converged
    Max DEpsilonPEq is 0
    0 cells (0% of the cells in this material) are actively yielding

ExecutionTime = 258.72 s  ClockTime = 291 s

Time = 16.8

Evolving solid solver
    Assembling the matrix
    Solving
  0 KSP Residual norm 0.00629479 
  1 KSP Residual norm < 1.e-11
    Initial residual = 3.96243e-05
    Iter = 0, relRef = 1, res = 0.00629479, resAbs = 3.96243e-05, nIters = 1, maxD = 0.00205555
    Solving
  0 KSP Residual norm < 1.e-11
    Iter = 1, relRef = 0, res = 0, resAbs = 0, nIters = 0, maxD = 0.00205555
    Converged
    Max DEpsilonPEq is 0
    0 cells (0% of the cells in this material) are actively yielding

ExecutionTime = 259.42 s  ClockTime = 291 s

Time = 17

Evolving solid solver
    Assembling the matrix
    Solving
  0 KSP Residual norm 0.00629479 
  1 KSP Residual norm < 1.e-11
    Initial residual = 3.96243e-05
    Iter = 0, relRef = 1, res = 0.00629479, resAbs = 3.96243e-05, nIters = 1, maxD = 0.00195443
    Solving
  0 KSP Residual norm < 1.e-11
    Iter = 1, relRef = 0, res = 0, resAbs = 0, nIters = 0, maxD = 0.00195443
    Converged
    Max DEpsilonPEq is 0
    0 cells (0% of the cells in this material) are actively yielding

Max pEpsilonEq = 0.0102541
Max epsilonEq = 0.0105037
Max sigmaEq (von Mises stress) = 1.31027e+08
ExecutionTime = 260.25 s  ClockTime = 292 s

Time = 17.2

Evolving solid solver
    Assembling the matrix
    Solving
  0 KSP Residual norm 0.00629479 
  1 KSP Residual norm < 1.e-11
    Initial residual = 3.96243e-05
    Iter = 0, relRef = 1, res = 0.00629479, resAbs = 3.96243e-05, nIters = 1, maxD = 0.0018533
    Solving
  0 KSP Residual norm < 1.e-11
    Iter = 1, relRef = 0, res = 0, resAbs = 0, nIters = 0, maxD = 0.0018533
    Converged
    Max DEpsilonPEq is 0
    0 cells (0% of the cells in this material) are actively yielding

ExecutionTime = 260.97 s  ClockTime = 293 s

Time = 17.4

Evolving solid solver
    Assembling the matrix
    Solving
  0 KSP Residual norm 0.00629479 
  1 KSP Residual norm < 1.e-11
    Initial residual = 3.96243e-05
    Iter = 0, relRef = 1, res = 0.00629479, resAbs = 3.96243e-05, nIters = 1, maxD = 0.00175218
    Solving
  0 KSP Residual norm < 1.e-11
    Iter = 1, relRef = 0, res = 0, resAbs = 0, nIters = 0, maxD = 0.00175218
    Converged
    Max DEpsilonPEq is 0
    0 cells (0% of the cells in this material) are actively yielding

ExecutionTime = 261.66 s  ClockTime = 294 s

Time = 17.6

Evolving solid solver
    Assembling the matrix
    Solving
  0 KSP Residual norm 0.00629479 
  1 KSP Residual norm < 1.e-11
    Initial residual = 3.96243e-05
    Iter = 0, relRef = 1, res = 0.00629479, resAbs = 3.96243e-05, nIters = 1, maxD = 0.00165106
    Solving
  0 KSP Residual norm < 1.e-11
    Iter = 1, relRef = 0, res = 0, resAbs = 0, nIters = 0, maxD = 0.00165106
    Converged
    Max DEpsilonPEq is 0
    0 cells (0% of the cells in this material) are actively yielding

ExecutionTime = 262.37 s  ClockTime = 295 s

Time = 17.8

Evolving solid solver
    Assembling the matrix
    Solving
  0 KSP Residual norm 0.00629479 
  1 KSP Residual norm < 1.e-11
    Initial residual = 3.96243e-05
    Iter = 0, relRef = 1, res = 0.00629479, resAbs = 3.96243e-05, nIters = 1, maxD = 0.00154994
    Solving
  0 KSP Residual norm < 1.e-11
    Iter = 1, relRef = 0, res = 0, resAbs = 0, nIters = 0, maxD = 0.00154994
    Converged
    Max DEpsilonPEq is 0
    0 cells (0% of the cells in this material) are actively yielding

ExecutionTime = 263 s  ClockTime = 295 s

Time = 18

Evolving solid solver
    Assembling the matrix
    Solving
  0 KSP Residual norm 0.00629479 
  1 KSP Residual norm < 1.e-11
    Initial residual = 3.96243e-05
    Iter = 0, relRef = 1, res = 0.00629479, resAbs = 3.96243e-05, nIters = 1, maxD = 0.00144882
    Solving
  0 KSP Residual norm < 1.e-11
    Iter = 1, relRef = 0, res = 0, resAbs = 0, nIters = 0, maxD = 0.00144882
    Converged
    Max DEpsilonPEq is 0
    0 cells (0% of the cells in this material) are actively yielding

Max pEpsilonEq = 0.00966477
Max epsilonEq = 0.00994619
Max sigmaEq (von Mises stress) = 1.78507e+08
ExecutionTime = 263.91 s  ClockTime = 296 s

Time = 18.2

Evolving solid solver
    Assembling the matrix
    Solving
  0 KSP Residual norm 0.00629479 
  1 KSP Residual norm < 1.e-11
    Initial residual = 3.96243e-05
    Iter = 0, relRef = 1, res = 0.00629479, resAbs = 3.96243e-05, nIters = 1, maxD = 0.0013477
    Solving
  0 KSP Residual norm < 1.e-11
    Iter = 1, relRef = 0, res = 0, resAbs = 0, nIters = 0, maxD = 0.0013477
    Converged
    Max DEpsilonPEq is 0
    0 cells (0% of the cells in this material) are actively yielding

ExecutionTime = 264.59 s  ClockTime = 297 s

Time = 18.4

Evolving solid solver
    Assembling the matrix
    Solving
  0 KSP Residual norm 0.00629479 
  1 KSP Residual norm < 1.e-11
    Initial residual = 3.96243e-05
    Iter = 0, relRef = 1, res = 0.00629479, resAbs = 3.96243e-05, nIters = 1, maxD = 0.00124658
    Solving
  0 KSP Residual norm < 1.e-11
    Iter = 1, relRef = 0, res = 0, resAbs = 0, nIters = 0, maxD = 0.00124658
    Converged
    Max DEpsilonPEq is 0
    0 cells (0% of the cells in this material) are actively yielding

ExecutionTime = 265.35 s  ClockTime = 298 s

Time = 18.6

Evolving solid solver
    Assembling the matrix
    Solving
  0 KSP Residual norm 0.00629479 
  1 KSP Residual norm < 1.e-11
    Initial residual = 3.96243e-05
    Iter = 0, relRef = 1, res = 0.00629479, resAbs = 3.96243e-05, nIters = 1, maxD = 0.00114546
    Solving
  0 KSP Residual norm < 1.e-11
    Iter = 1, relRef = 0, res = 0, resAbs = 0, nIters = 0, maxD = 0.00114546
    Converged
    Max DEpsilonPEq is 0
    0 cells (0% of the cells in this material) are actively yielding

ExecutionTime = 266.03 s  ClockTime = 299 s

Time = 18.8

Evolving solid solver
    Assembling the matrix
    Solving
  0 KSP Residual norm 0.00629479 
  1 KSP Residual norm < 1.e-11
    Initial residual = 3.96243e-05
    Iter = 0, relRef = 1, res = 0.00629479, resAbs = 3.96243e-05, nIters = 1, maxD = 0.00104434
    Solving
  0 KSP Residual norm < 1.e-11
    Iter = 1, relRef = 0, res = 0, resAbs = 0, nIters = 0, maxD = 0.00104434
    Converged
    Max DEpsilonPEq is 0
    0 cells (0% of the cells in this material) are actively yielding

ExecutionTime = 266.75 s  ClockTime = 299 s

Time = 19

Evolving solid solver
    Assembling the matrix
    Solving
  0 KSP Residual norm 0.00629479 
  1 KSP Residual norm < 1.e-11
    Initial residual = 3.96243e-05
    Iter = 0, relRef = 1, res = 0.00629479, resAbs = 3.96243e-05, nIters = 1, maxD = 0.000943216
    Solving
  0 KSP Residual norm < 1.e-11
    Iter = 1, relRef = 0, res = 0, resAbs = 0, nIters = 0, maxD = 0.000943216
    Converged
    Max DEpsilonPEq is 0
    0 cells (0% of the cells in this material) are actively yielding

Max pEpsilonEq = 0.00907869
Max epsilonEq = 0.00939092
Max sigmaEq (von Mises stress) = 2.27447e+08
ExecutionTime = 267.58 s  ClockTime = 300 s

Time = 19.2

Evolving solid solver
    Assembling the matrix
    Solving
  0 KSP Residual norm 0.00629479 
  1 KSP Residual norm < 1.e-11
    Initial residual = 3.96243e-05
    Iter = 0, relRef = 1, res = 0.00629479, resAbs = 3.96243e-05, nIters = 1, maxD = 0.000875977
    Solving
  0 KSP Residual norm < 1.e-11
    Iter = 1, relRef = 0, res = 0, resAbs = 0, nIters = 0, maxD = 0.000875977
    Converged
    Max DEpsilonPEq is 0
    0 cells (0% of the cells in this material) are actively yielding

ExecutionTime = 268.23 s  ClockTime = 301 s

Time = 19.4

Evolving solid solver
    Assembling the matrix
    Solving
  0 KSP Residual norm 0.00629479 
  1 KSP Residual norm < 1.e-11
    Initial residual = 3.96243e-05
    Iter = 0, relRef = 1, res = 0.00629479, resAbs = 3.96243e-05, nIters = 1, maxD = 0.000838027
    Solving
  0 KSP Residual norm 7.67644e-06 
  1 KSP Residual norm < 1.e-11
    Iter = 1, relRef = 1.48716e-06, res = 7.67644e-06, resAbs = 5.89278e-11, nIters = 1, maxD = 0.000837865
    Solving
  0 KSP Residual norm 1.85254e-06 
  1 KSP Residual norm < 1.e-11
    Iter = 2, relRef = 8.66111e-08, res = 1.85254e-06, resAbs = 3.43191e-12, nIters = 1, maxD = 0.000837826
    Solving
  0 KSP Residual norm 4.52478e-07 
  1 KSP Residual norm < 1.e-11
    Iter = 3, relRef = 5.16694e-09, res = 4.52478e-07, resAbs = 2.04737e-13, nIters = 1, maxD = 0.000837816
    Solving
  0 KSP Residual norm 1.11854e-07 
  1 KSP Residual norm < 1.e-11
    Iter = 4, relRef = 3.15748e-10, res = 1.11854e-07, resAbs = 1.25113e-14, nIters = 1, maxD = 0.000837814
    Solving
  0 KSP Residual norm 2.82481e-08 
  1 KSP Residual norm < 1.e-11
    Iter = 5, relRef = 2.0138e-11, res = 2.82481e-08, resAbs = 7.97956e-16, nIters = 1, maxD = 0.000837813
    Converged
    Max DEpsilonPEq is 6.80106e-05
    2 cells (0.0260892% of the cells in this material) are actively yielding

ExecutionTime = 269.94 s  ClockTime = 303 s

Time = 19.6

Evolving solid solver
    Assembling the matrix
    Solving
  0 KSP Residual norm 0.00629809 
  1 KSP Residual norm < 1.e-11
    Initial residual = 3.96659e-05
    Iter = 0, relRef = 1, res = 0.00629809, resAbs = 3.96659e-05, nIters = 1, maxD = 0.000800266
    Solving
  0 KSP Residual norm 1.82714e-05 
  1 KSP Residual norm < 1.e-11
    Iter = 1, relRef = 8.41639e-06, res = 1.82714e-05, resAbs = 3.33844e-10, nIters = 1, maxD = 0.000799877
    Solving
  0 KSP Residual norm 3.41879e-06 
  1 KSP Residual norm < 1.e-11
    Iter = 2, relRef = 2.94663e-07, res = 3.41879e-06, resAbs = 1.16881e-11, nIters = 1, maxD = 0.000799804
    Solving
  0 KSP Residual norm 6.78319e-07 
  1 KSP Residual norm < 1.e-11
    Iter = 3, relRef = 1.15998e-08, res = 6.78319e-07, resAbs = 4.60117e-13, nIters = 1, maxD = 0.000799789
    Solving
  0 KSP Residual norm 1.45901e-07 
  1 KSP Residual norm < 1.e-11
    Iter = 4, relRef = 5.36658e-10, res = 1.45901e-07, resAbs = 2.12871e-14, nIters = 1, maxD = 0.000799786
    Solving
  0 KSP Residual norm 3.64927e-08 
  1 KSP Residual norm < 1.e-11
    Iter = 5, relRef = 3.35733e-11, res = 3.64927e-08, resAbs = 1.33172e-15, nIters = 1, maxD = 0.000799785
    Converged
    Max DEpsilonPEq is 0.00017425
    2 cells (0.0260892% of the cells in this material) are actively yielding

ExecutionTime = 271.63 s  ClockTime = 305 s

Time = 19.8

Evolving solid solver
    Assembling the matrix
    Solving
  0 KSP Residual norm 0.00629818 
  1 KSP Residual norm < 1.e-11
    Initial residual = 3.96671e-05
    Iter = 0, relRef = 1, res = 0.00629818, resAbs = 3.96671e-05, nIters = 1, maxD = 0.000762786
    Solving
  0 KSP Residual norm 1.83867e-05 
  1 KSP Residual norm < 1.e-11
    Iter = 1, relRef = 8.52273e-06, res = 1.83867e-05, resAbs = 3.38072e-10, nIters = 1, maxD = 0.000762394
    Solving
  0 KSP Residual norm 3.47463e-06 
  1 KSP Residual norm < 1.e-11
    Iter = 2, relRef = 3.0436e-07, res = 3.47463e-06, resAbs = 1.20731e-11, nIters = 1, maxD = 0.000762319
    Solving
  0 KSP Residual norm 6.9678e-07 
  1 KSP Residual norm < 1.e-11
    Iter = 3, relRef = 1.22394e-08, res = 6.9678e-07, resAbs = 4.85502e-13, nIters = 1, maxD = 0.000762304
    Solving
  0 KSP Residual norm 1.51504e-07 
  1 KSP Residual norm < 1.e-11
    Iter = 4, relRef = 5.78651e-10, res = 1.51504e-07, resAbs = 2.29534e-14, nIters = 1, maxD = 0.000762301
    Solving
  0 KSP Residual norm 3.82622e-08 
  1 KSP Residual norm < 1.e-11
    Iter = 5, relRef = 3.6907e-11, res = 3.82622e-08, resAbs = 1.464e-15, nIters = 1, maxD = 0.0007623
    Converged
    Max DEpsilonPEq is 0.000176088
    2 cells (0.0260892% of the cells in this material) are actively yielding

ExecutionTime = 273.36 s  ClockTime = 307 s

Time = 20

Evolving solid solver
    Assembling the matrix
    Solving
  0 KSP Residual norm 0.00629827 
  1 KSP Residual norm < 1.e-11
    Initial residual = 3.96682e-05
    Iter = 0, relRef = 1, res = 0.00629827, resAbs = 3.96682e-05, nIters = 1, maxD = 0.000725933
    Solving
  0 KSP Residual norm 2.68167e-05 
  1 KSP Residual norm < 1.e-11
    Iter = 1, relRef = 1.81287e-05, res = 2.68167e-05, resAbs = 7.19134e-10, nIters = 1, maxD = 0.000725343
    Solving
  0 KSP Residual norm 4.7929e-06 
  1 KSP Residual norm < 1.e-11
    Iter = 2, relRef = 5.791e-07, res = 4.7929e-06, resAbs = 2.29719e-11, nIters = 1, maxD = 0.000725235
    Solving
  0 KSP Residual norm 1.04849e-06 
  1 KSP Residual norm < 1.e-11
    Iter = 3, relRef = 2.7713e-08, res = 1.04849e-06, resAbs = 1.09932e-12, nIters = 1, maxD = 0.000725211
    Solving
  0 KSP Residual norm 2.97144e-07 
  1 KSP Residual norm < 1.e-11
    Iter = 4, relRef = 2.22583e-09, res = 2.97144e-07, resAbs = 8.82945e-14, nIters = 1, maxD = 0.000725204
    Solving
  0 KSP Residual norm 1.0675e-07 
  1 KSP Residual norm < 1.e-11
    Iter = 5, relRef = 2.87272e-10, res = 1.0675e-07, resAbs = 1.13956e-14, nIters = 1, maxD = 0.000725202
    Solving
  0 KSP Residual norm 4.42295e-08 
  1 KSP Residual norm < 1.e-11
    Iter = 6, relRef = 4.93153e-11, res = 4.42295e-08, resAbs = 1.95625e-15, nIters = 1, maxD = 0.000725201
    Converged
    Max DEpsilonPEq is 0.000160723
    3 cells (0.0391338% of the cells in this material) are actively yielding

Max pEpsilonEq = 0.00836371
Max epsilonEq = 0.00872926
Max sigmaEq (von Mises stress) = 2.43e+08
ExecutionTime = 275.53 s  ClockTime = 309 s

The momentum equation converged in all time-steps


End

