/*---------------------------------------------------------------------------*\
| =========                 |                                                 |
| \\      /  F ield         | OpenFOAM: The Open Source CFD Toolbox           |
|  \\    /   O peration     | Version:  v2012                                 |
|   \\  /    A nd           | Website:  www.openfoam.com                      |
|    \\/     M anipulation  |                                                 |
\*---------------------------------------------------------------------------*/
Build  : _7bdb509494-20201222 OPENFOAM=2012
Arch   : "LSB;label=32;scalar=64"
Exec   : solids4Foam
Date   : Jul 07 2023
Time   : 12:23:39
Host   : DESKTOP-19FOE2K
PID    : 25827
I/O    : uncollated
Case   : /home/federico/OpenFOAM/federico-v2012/run/solid-benchmarks-main/elastoplasticity/plateHole/vertexCentredLinearGeometry/structuredTriangles_ModTangent/vertex.3
nProcs : 1
trapFpe: Floating point exception trapping enabled (FOAM_SIGFPE).
fileModificationChecking : Monitoring run-time modified files using timeStampMaster (fileModificationSkew 5, maxFileModificationPolls 20)
allowSystemOperations : Allowing user-supplied system call operations

// * * * * * * * * * * * * * * * * * * * * * * * * * * * * * * * * * * * * * //
Create time

--> FOAM Warning : 
    From static Foam::IOstreamOption::compressionType Foam::IOstreamOption::compressionEnum(const Foam::word&, Foam::IOstreamOption::compressionType)
    in file db/IOstreams/IOstreams/IOstreamOption.C at line 115
    Unknown compression specifier 'uncompressed', using compression off
/*---------------------------------------------------------------------------*\
|    For further information on the solids4Foam toolbox implementations,      |
|    please see the following publications:                                   |
|                                                                             |
|    P. Cardiff, A Karac, P. De Jaeger, H. Jasak, J. Nagy, A. Ivankovic,      |
|    Z. Tukovic: An open-source finite volume toolbox for solid mechanics and |
|    fluid-solid interaction simulations. arXiv:1808.10736v2, 2018, available |
|    at https://arxiv.org/abs/1808.10736.                                     |
|                                                                             |
|    Z. Tukovic, A. Karac, P. Cardiff, H. Jasak, A. Ivankovic: OpenFOAM       |
|    finite volume solver for fluid-solid interaction.  Transactions of       |
|    Famena, 42 (3), pp. 1-31, 2018, 10.21278/TOF.42301.                      |
\*---------------------------------------------------------------------------*/

Selecting physicsModel solidModel
Selecting solidModel vertexCentredLinearGeometry
Selecting dynamicFvMesh staticFvMesh
    traction is time-varying
    under-relaxation method: fixed
Creating dualMesh
    featureAngle: 30
    doNotPreserveFaceZones: 0
    concaveMultiCells: 0
Constructing dualFaceToCell:
    internal faces not set: 0
    boundary faces not set: 1

Creating the mechanicalModel
Selecting mechanical law linearElasticMisesPlastic
    Plasticity is linear
Creating the dualMechanicalModel
Selecting mechanical law linearElasticMisesPlastic
    Plasticity is linear
fixedDofScale: 4.9512e+09
Creating disp function object
    region = region0
    minDist: 1e-06
SortByCompY called6161
Time = 0.2

Evolving solid solver
    Solving
  0 KSP Residual norm 0.00593694 
  1 KSP Residual norm < 1.e-11
    Initial residual = 3.52472e-05
    Iter = 0, relRef = 1, res = 0.00593694, resAbs = 3.52472e-05, nIters = 1, maxD = 0.000101099
    Solving
  0 KSP Residual norm < 1.e-11
    Iter = 1, relRef = 0, res = 0, resAbs = 0, nIters = 0, maxD = 0.000101099
    Converged
    Max DEpsilonPEq is 0
    0 cells (0% of the cells in this material) are actively yielding

ExecutionTime = 1.25 s  ClockTime = 2 s

Time = 0.4

Evolving solid solver
    Solving
  0 KSP Residual norm 0.00593694 
  1 KSP Residual norm < 1.e-11
    Initial residual = 3.52472e-05
    Iter = 0, relRef = 1, res = 0.00593694, resAbs = 3.52472e-05, nIters = 1, maxD = 0.000202198
    Solving
  0 KSP Residual norm < 1.e-11
    Iter = 1, relRef = 0, res = 0, resAbs = 0, nIters = 0, maxD = 0.000202198
    Converged
    Max DEpsilonPEq is 0
    0 cells (0% of the cells in this material) are actively yielding

ExecutionTime = 2.04 s  ClockTime = 2 s

Time = 0.6

Evolving solid solver
    Solving
  0 KSP Residual norm 0.00593694 
  1 KSP Residual norm < 1.e-11
    Initial residual = 3.52472e-05
    Iter = 0, relRef = 1, res = 0.00593694, resAbs = 3.52472e-05, nIters = 1, maxD = 0.000303297
    Solving
  0 KSP Residual norm < 1.e-11
    Iter = 1, relRef = 0, res = 0, resAbs = 0, nIters = 0, maxD = 0.000303297
    Converged
    Max DEpsilonPEq is 0
    0 cells (0% of the cells in this material) are actively yielding

ExecutionTime = 2.84 s  ClockTime = 3 s

Time = 0.8

Evolving solid solver
    Solving
  0 KSP Residual norm 0.00593694 
  1 KSP Residual norm < 1.e-11
    Initial residual = 3.52472e-05
    Iter = 0, relRef = 1, res = 0.00593694, resAbs = 3.52472e-05, nIters = 1, maxD = 0.000404395
    Solving
  0 KSP Residual norm < 1.e-11
    Iter = 1, relRef = 0, res = 0, resAbs = 0, nIters = 0, maxD = 0.000404395
    Converged
    Max DEpsilonPEq is 0
    0 cells (0% of the cells in this material) are actively yielding

ExecutionTime = 3.64 s  ClockTime = 4 s

Time = 1

Evolving solid solver
    Solving
  0 KSP Residual norm 0.00593694 
  1 KSP Residual norm < 1.e-11
    Initial residual = 3.52472e-05
    Iter = 0, relRef = 1, res = 0.00593694, resAbs = 3.52472e-05, nIters = 1, maxD = 0.000505494
    Solving
  0 KSP Residual norm < 1.e-11
    Iter = 1, relRef = 0, res = 0, resAbs = 0, nIters = 0, maxD = 0.000505494
    Converged
    Max DEpsilonPEq is 0
    0 cells (0% of the cells in this material) are actively yielding

Max pEpsilonEq = 0.000639809
Max epsilonEq = 0.000639809
Max sigmaEq (von Mises stress) = 5.16769e+07
ExecutionTime = 4.53 s  ClockTime = 5 s

Time = 1.2

Evolving solid solver
    Solving
  0 KSP Residual norm 0.00593694 
  1 KSP Residual norm < 1.e-11
    Initial residual = 3.52472e-05
    Iter = 0, relRef = 1, res = 0.00593694, resAbs = 3.52472e-05, nIters = 1, maxD = 0.000606593
    Solving
  0 KSP Residual norm < 1.e-11
    Iter = 1, relRef = 0, res = 0, resAbs = 0, nIters = 0, maxD = 0.000606593
    Converged
    Max DEpsilonPEq is 0
    0 cells (0% of the cells in this material) are actively yielding

ExecutionTime = 5.31 s  ClockTime = 6 s

Time = 1.4

Evolving solid solver
    Solving
  0 KSP Residual norm 0.00593694 
  1 KSP Residual norm < 1.e-11
    Initial residual = 3.52472e-05
    Iter = 0, relRef = 1, res = 0.00593694, resAbs = 3.52472e-05, nIters = 1, maxD = 0.000707692
    Solving
  0 KSP Residual norm < 1.e-11
    Iter = 1, relRef = 0, res = 0, resAbs = 0, nIters = 0, maxD = 0.000707692
    Converged
    Max DEpsilonPEq is 0
    0 cells (0% of the cells in this material) are actively yielding

ExecutionTime = 5.98 s  ClockTime = 7 s

Time = 1.6

Evolving solid solver
    Solving
  0 KSP Residual norm 0.00593694 
  1 KSP Residual norm < 1.e-11
    Initial residual = 3.52472e-05
    Iter = 0, relRef = 1, res = 0.00593694, resAbs = 3.52472e-05, nIters = 1, maxD = 0.000808791
    Solving
  0 KSP Residual norm < 1.e-11
    Iter = 1, relRef = 0, res = 0, resAbs = 0, nIters = 0, maxD = 0.000808791
    Converged
    Max DEpsilonPEq is 0
    0 cells (0% of the cells in this material) are actively yielding

ExecutionTime = 6.59 s  ClockTime = 7 s

Time = 1.8

Evolving solid solver
    Solving
  0 KSP Residual norm 0.00593694 
  1 KSP Residual norm < 1.e-11
    Initial residual = 3.52472e-05
    Iter = 0, relRef = 1, res = 0.00593694, resAbs = 3.52472e-05, nIters = 1, maxD = 0.00090989
    Solving
  0 KSP Residual norm < 1.e-11
    Iter = 1, relRef = 0, res = 0, resAbs = 0, nIters = 0, maxD = 0.00090989
    Converged
    Max DEpsilonPEq is 0
    0 cells (0% of the cells in this material) are actively yielding

ExecutionTime = 7.31 s  ClockTime = 8 s

Time = 2

Evolving solid solver
    Solving
  0 KSP Residual norm 0.00593694 
  1 KSP Residual norm < 1.e-11
    Initial residual = 3.52472e-05
    Iter = 0, relRef = 1, res = 0.00593694, resAbs = 3.52472e-05, nIters = 1, maxD = 0.00101099
    Solving
  0 KSP Residual norm < 1.e-11
    Iter = 1, relRef = 0, res = 0, resAbs = 0, nIters = 0, maxD = 0.00101099
    Converged
    Max DEpsilonPEq is 0
    0 cells (0% of the cells in this material) are actively yielding

Max pEpsilonEq = 0.00127962
Max epsilonEq = 0.00127962
Max sigmaEq (von Mises stress) = 1.03354e+08
ExecutionTime = 8.12 s  ClockTime = 9 s

Time = 2.2

Evolving solid solver
    Solving
  0 KSP Residual norm 0.00593694 
  1 KSP Residual norm < 1.e-11
    Initial residual = 3.52472e-05
    Iter = 0, relRef = 1, res = 0.00593694, resAbs = 3.52472e-05, nIters = 1, maxD = 0.00111209
    Solving
  0 KSP Residual norm < 1.e-11
    Iter = 1, relRef = 0, res = 0, resAbs = 0, nIters = 0, maxD = 0.00111209
    Converged
    Max DEpsilonPEq is 0
    0 cells (0% of the cells in this material) are actively yielding

ExecutionTime = 8.94 s  ClockTime = 10 s

Time = 2.4

Evolving solid solver
    Solving
  0 KSP Residual norm 0.00593694 
  1 KSP Residual norm < 1.e-11
    Initial residual = 3.52472e-05
    Iter = 0, relRef = 1, res = 0.00593694, resAbs = 3.52472e-05, nIters = 1, maxD = 0.00121319
    Solving
  0 KSP Residual norm < 1.e-11
    Iter = 1, relRef = 0, res = 0, resAbs = 0, nIters = 0, maxD = 0.00121319
    Converged
    Max DEpsilonPEq is 0
    0 cells (0% of the cells in this material) are actively yielding

ExecutionTime = 9.7 s  ClockTime = 11 s

Time = 2.6

Evolving solid solver
    Solving
  0 KSP Residual norm 0.00593694 
  1 KSP Residual norm < 1.e-11
    Initial residual = 3.52472e-05
    Iter = 0, relRef = 1, res = 0.00593694, resAbs = 3.52472e-05, nIters = 1, maxD = 0.00131429
    Solving
  0 KSP Residual norm < 1.e-11
    Iter = 1, relRef = 0, res = 0, resAbs = 0, nIters = 0, maxD = 0.00131429
    Converged
    Max DEpsilonPEq is 0
    0 cells (0% of the cells in this material) are actively yielding

ExecutionTime = 10.41 s  ClockTime = 11 s

Time = 2.8

Evolving solid solver
    Solving
  0 KSP Residual norm 0.00593694 
  1 KSP Residual norm < 1.e-11
    Initial residual = 3.52472e-05
    Iter = 0, relRef = 1, res = 0.00593694, resAbs = 3.52472e-05, nIters = 1, maxD = 0.00141538
    Solving
  0 KSP Residual norm < 1.e-11
    Iter = 1, relRef = 0, res = 0, resAbs = 0, nIters = 0, maxD = 0.00141538
    Converged
    Max DEpsilonPEq is 0
    0 cells (0% of the cells in this material) are actively yielding

ExecutionTime = 11.18 s  ClockTime = 12 s

Time = 3

Evolving solid solver
    Solving
  0 KSP Residual norm 0.00593694 
  1 KSP Residual norm < 1.e-11
    Initial residual = 3.52472e-05
    Iter = 0, relRef = 1, res = 0.00593694, resAbs = 3.52472e-05, nIters = 1, maxD = 0.00151648
    Solving
  0 KSP Residual norm < 1.e-11
    Iter = 1, relRef = 0, res = 0, resAbs = 0, nIters = 0, maxD = 0.00151648
    Converged
    Max DEpsilonPEq is 0
    0 cells (0% of the cells in this material) are actively yielding

Max pEpsilonEq = 0.00191943
Max epsilonEq = 0.00191943
Max sigmaEq (von Mises stress) = 1.55031e+08
ExecutionTime = 12.08 s  ClockTime = 13 s

Time = 3.2

Evolving solid solver
    Solving
  0 KSP Residual norm 0.00593694 
  1 KSP Residual norm < 1.e-11
    Initial residual = 3.52472e-05
    Iter = 0, relRef = 1, res = 0.00593694, resAbs = 3.52472e-05, nIters = 1, maxD = 0.00161758
    Solving
  0 KSP Residual norm < 1.e-11
    Iter = 1, relRef = 0, res = 0, resAbs = 0, nIters = 0, maxD = 0.00161758
    Converged
    Max DEpsilonPEq is 0
    0 cells (0% of the cells in this material) are actively yielding

ExecutionTime = 12.84 s  ClockTime = 14 s

Time = 3.4

Evolving solid solver
    Solving
  0 KSP Residual norm 0.00593694 
  1 KSP Residual norm < 1.e-11
    Initial residual = 3.52472e-05
    Iter = 0, relRef = 1, res = 0.00593694, resAbs = 3.52472e-05, nIters = 1, maxD = 0.00171868
    Solving
  0 KSP Residual norm < 1.e-11
    Iter = 1, relRef = 0, res = 0, resAbs = 0, nIters = 0, maxD = 0.00171868
    Converged
    Max DEpsilonPEq is 0
    0 cells (0% of the cells in this material) are actively yielding

ExecutionTime = 13.63 s  ClockTime = 15 s

Time = 3.6

Evolving solid solver
    Solving
  0 KSP Residual norm 0.00593694 
  1 KSP Residual norm < 1.e-11
    Initial residual = 3.52472e-05
    Iter = 0, relRef = 1, res = 0.00593694, resAbs = 3.52472e-05, nIters = 1, maxD = 0.00181978
    Solving
  0 KSP Residual norm < 1.e-11
    Iter = 1, relRef = 0, res = 0, resAbs = 0, nIters = 0, maxD = 0.00181978
    Converged
    Max DEpsilonPEq is 0
    0 cells (0% of the cells in this material) are actively yielding

ExecutionTime = 14.44 s  ClockTime = 16 s

Time = 3.8

Evolving solid solver
    Solving
  0 KSP Residual norm 0.00593694 
  1 KSP Residual norm < 1.e-11
    Initial residual = 3.52472e-05
    Iter = 0, relRef = 1, res = 0.00593694, resAbs = 3.52472e-05, nIters = 1, maxD = 0.00192088
    Solving
  0 KSP Residual norm < 1.e-11
    Iter = 1, relRef = 0, res = 0, resAbs = 0, nIters = 0, maxD = 0.00192088
    Converged
    Max DEpsilonPEq is 0
    0 cells (0% of the cells in this material) are actively yielding

ExecutionTime = 15.14 s  ClockTime = 16 s

Time = 4

Evolving solid solver
    Solving
  0 KSP Residual norm 0.00593694 
  1 KSP Residual norm < 1.e-11
    Initial residual = 3.52472e-05
    Iter = 0, relRef = 1, res = 0.00593694, resAbs = 3.52472e-05, nIters = 1, maxD = 0.00202198
    Solving
  0 KSP Residual norm < 1.e-11
    Iter = 1, relRef = 0, res = 0, resAbs = 0, nIters = 0, maxD = 0.00202198
    Converged
    Max DEpsilonPEq is 0
    0 cells (0% of the cells in this material) are actively yielding

Max pEpsilonEq = 0.00255924
Max epsilonEq = 0.00255924
Max sigmaEq (von Mises stress) = 2.06707e+08
ExecutionTime = 15.99 s  ClockTime = 17 s

Time = 4.2

Evolving solid solver
    Solving
  0 KSP Residual norm 0.00593694 
  1 KSP Residual norm < 1.e-11
    Initial residual = 3.52472e-05
    Iter = 0, relRef = 1, res = 0.00593694, resAbs = 3.52472e-05, nIters = 1, maxD = 0.00212308
    Solving
  0 KSP Residual norm < 1.e-11
    Iter = 1, relRef = 0, res = 0, resAbs = 0, nIters = 0, maxD = 0.00212308
    Converged
    Max DEpsilonPEq is 0
    0 cells (0% of the cells in this material) are actively yielding

ExecutionTime = 16.75 s  ClockTime = 18 s

Time = 4.4

Evolving solid solver
    Solving
  0 KSP Residual norm 0.00593694 
  1 KSP Residual norm < 1.e-11
    Initial residual = 3.52472e-05
    Iter = 0, relRef = 1, res = 0.00593694, resAbs = 3.52472e-05, nIters = 1, maxD = 0.00222417
    Solving
  0 KSP Residual norm < 1.e-11
    Iter = 1, relRef = 0, res = 0, resAbs = 0, nIters = 0, maxD = 0.00222417
    Converged
    Max DEpsilonPEq is 0
    0 cells (0% of the cells in this material) are actively yielding

ExecutionTime = 17.54 s  ClockTime = 19 s

Time = 4.6

Evolving solid solver
    Solving
  0 KSP Residual norm 0.00593694 
  1 KSP Residual norm < 1.e-11
    Initial residual = 3.52472e-05
    Iter = 0, relRef = 1, res = 0.00593694, resAbs = 3.52472e-05, nIters = 1, maxD = 0.00232527
    Solving
  0 KSP Residual norm < 1.e-11
    Iter = 1, relRef = 0, res = 0, resAbs = 0, nIters = 0, maxD = 0.00232527
    Converged
    Max DEpsilonPEq is 0
    0 cells (0% of the cells in this material) are actively yielding

ExecutionTime = 18.28 s  ClockTime = 20 s

Time = 4.8

Evolving solid solver
    Solving
  0 KSP Residual norm 0.00593694 
  1 KSP Residual norm < 1.e-11
    Initial residual = 3.52472e-05
    Iter = 0, relRef = 1, res = 0.00593694, resAbs = 3.52472e-05, nIters = 1, maxD = 0.00242637
    Solving
  0 KSP Residual norm 6.08523e-06 
  1 KSP Residual norm < 1.e-11
    Iter = 1, relRef = 1.05058e-06, res = 6.08523e-06, resAbs = 3.703e-11, nIters = 1, maxD = 0.00242643
    Solving
  0 KSP Residual norm 5.46659e-07 
  1 KSP Residual norm < 1.e-11
    Iter = 2, relRef = 8.47827e-09, res = 5.46659e-07, resAbs = 2.98836e-13, nIters = 1, maxD = 0.00242643
    Solving
  0 KSP Residual norm 2.13327e-09 
  1 KSP Residual norm < 1.e-11
    Iter = 3, relRef = 1.29112e-13, res = 2.13327e-09, resAbs = 4.55084e-18, nIters = 1, maxD = 0.00242643
    Converged
    Max DEpsilonPEq is 0.00012088
    1 cells (0.0125% of the cells in this material) are actively yielding

ExecutionTime = 19.74 s  ClockTime = 21 s

Time = 5

Evolving solid solver
    Solving
  0 KSP Residual norm 0.00594251 
  1 KSP Residual norm < 1.e-11
    Initial residual = 3.53134e-05
    Iter = 0, relRef = 1, res = 0.00594251, resAbs = 3.53134e-05, nIters = 1, maxD = 0.0025276
    Solving
  0 KSP Residual norm 1.79336e-05 
  1 KSP Residual norm < 1.e-11
    Iter = 1, relRef = 9.10741e-06, res = 1.79336e-05, resAbs = 3.21614e-10, nIters = 1, maxD = 0.00252777
    Solving
  0 KSP Residual norm 1.96727e-06 
  1 KSP Residual norm < 1.e-11
    Iter = 2, relRef = 1.09595e-07, res = 1.96727e-06, resAbs = 3.87017e-12, nIters = 1, maxD = 0.00252779
    Solving
  0 KSP Residual norm 1.71469e-08 
  1 KSP Residual norm < 1.e-11
    Iter = 3, relRef = 8.32586e-12, res = 1.71469e-08, resAbs = 2.94014e-16, nIters = 1, maxD = 0.00252779
    Converged
    Max DEpsilonPEq is 0.000211559
    5 cells (0.0625% of the cells in this material) are actively yielding

Max pEpsilonEq = 0.003341
Max epsilonEq = 0.003341
Max sigmaEq (von Mises stress) = 2.43e+08
ExecutionTime = 21.37 s  ClockTime = 23 s

Time = 5.2

Evolving solid solver
    Solving
  0 KSP Residual norm 0.00595939 
  1 KSP Residual norm < 1.e-11
    Initial residual = 3.55143e-05
    Iter = 0, relRef = 1, res = 0.00595939, resAbs = 3.55143e-05, nIters = 1, maxD = 0.00262914
    Solving
  0 KSP Residual norm 4.3029e-05 
  1 KSP Residual norm < 1.e-11
    Iter = 1, relRef = 5.21338e-05, res = 4.3029e-05, resAbs = 1.85149e-09, nIters = 1, maxD = 0.00262957
    Solving
  0 KSP Residual norm 1.85642e-06 
  1 KSP Residual norm < 1.e-11
    Iter = 2, relRef = 9.70393e-08, res = 1.85642e-06, resAbs = 3.44628e-12, nIters = 1, maxD = 0.00262959
    Solving
  0 KSP Residual norm 1.39915e-07 
  1 KSP Residual norm < 1.e-11
    Iter = 3, relRef = 5.51222e-10, res = 1.39915e-07, resAbs = 1.95763e-14, nIters = 1, maxD = 0.00262959
    Solving
  0 KSP Residual norm 3.06257e-08 
  1 KSP Residual norm < 1.e-11
    Iter = 4, relRef = 2.641e-11, res = 3.06257e-08, resAbs = 9.37934e-16, nIters = 1, maxD = 0.00262959
    Converged
    Max DEpsilonPEq is 0.00025282
    10 cells (0.125% of the cells in this material) are actively yielding

ExecutionTime = 23.13 s  ClockTime = 25 s

Time = 5.4

Evolving solid solver
    Solving
  0 KSP Residual norm 0.00598104 
  1 KSP Residual norm < 1.e-11
    Initial residual = 3.57728e-05
    Iter = 0, relRef = 1, res = 0.00598104, resAbs = 3.57728e-05, nIters = 1, maxD = 0.00273119
    Solving
  0 KSP Residual norm 6.28599e-05 
  1 KSP Residual norm < 1.e-11
    Iter = 1, relRef = 0.000110457, res = 6.28599e-05, resAbs = 3.95137e-09, nIters = 1, maxD = 0.00273182
    Solving
  0 KSP Residual norm 2.69359e-06 
  1 KSP Residual norm < 1.e-11
    Iter = 2, relRef = 2.0282e-07, res = 2.69359e-06, resAbs = 7.25543e-12, nIters = 1, maxD = 0.00273185
    Solving
  0 KSP Residual norm 4.39971e-07 
  1 KSP Residual norm < 1.e-11
    Iter = 3, relRef = 5.4112e-09, res = 4.39971e-07, resAbs = 1.93574e-13, nIters = 1, maxD = 0.00273185
    Solving
  0 KSP Residual norm 2.26916e-08 
  1 KSP Residual norm < 1.e-11
    Iter = 4, relRef = 1.43938e-11, res = 2.26916e-08, resAbs = 5.14909e-16, nIters = 1, maxD = 0.00273185
    Converged
    Max DEpsilonPEq is 0.00024127
    14 cells (0.175% of the cells in this material) are actively yielding

ExecutionTime = 24.86 s  ClockTime = 27 s

Time = 5.6

Evolving solid solver
    Solving
  0 KSP Residual norm 0.00599581 
  1 KSP Residual norm < 1.e-11
    Initial residual = 3.59498e-05
    Iter = 0, relRef = 1, res = 0.00599581, resAbs = 3.59498e-05, nIters = 1, maxD = 0.00283362
    Solving
  0 KSP Residual norm 0.00011132 
  1 KSP Residual norm < 1.e-11
    Iter = 1, relRef = 0.000344706, res = 0.00011132, resAbs = 1.23921e-08, nIters = 1, maxD = 0.00283475
    Solving
  0 KSP Residual norm 5.6484e-06 
  1 KSP Residual norm < 1.e-11
    Iter = 2, relRef = 8.87471e-07, res = 5.6484e-06, resAbs = 3.19044e-11, nIters = 1, maxD = 0.00283481
    Solving
  0 KSP Residual norm 1.0849e-06 
  1 KSP Residual norm < 1.e-11
    Iter = 3, relRef = 3.27404e-08, res = 1.0849e-06, resAbs = 1.17701e-12, nIters = 1, maxD = 0.00283482
    Solving
  0 KSP Residual norm 1.03945e-07 
  1 KSP Residual norm < 1.e-11
    Iter = 4, relRef = 3.00548e-10, res = 1.03945e-07, resAbs = 1.08046e-14, nIters = 1, maxD = 0.00283482
    Solving
  0 KSP Residual norm 2.24669e-08 
  1 KSP Residual norm < 1.e-11
    Iter = 5, relRef = 1.40408e-11, res = 2.24669e-08, resAbs = 5.04764e-16, nIters = 1, maxD = 0.00283482
    Converged
    Max DEpsilonPEq is 0.000274193
    20 cells (0.25% of the cells in this material) are actively yielding

ExecutionTime = 27.04 s  ClockTime = 29 s

Time = 5.8

Evolving solid solver
    Solving
  0 KSP Residual norm 0.00602093 
  1 KSP Residual norm < 1.e-11
    Initial residual = 3.62516e-05
    Iter = 0, relRef = 1, res = 0.00602093, resAbs = 3.62516e-05, nIters = 1, maxD = 0.00293688
    Solving
  0 KSP Residual norm 0.000143915 
  1 KSP Residual norm < 1.e-11
    Iter = 1, relRef = 0.000571323, res = 0.000143915, resAbs = 2.07114e-08, nIters = 1, maxD = 0.00293836
    Solving
  0 KSP Residual norm 1.01833e-05 
  1 KSP Residual norm < 1.e-11
    Iter = 2, relRef = 2.86056e-06, res = 1.01833e-05, resAbs = 1.037e-10, nIters = 1, maxD = 0.00293847
    Solving
  0 KSP Residual norm 1.94655e-06 
  1 KSP Residual norm < 1.e-11
    Iter = 3, relRef = 1.04521e-07, res = 1.94655e-06, resAbs = 3.78907e-12, nIters = 1, maxD = 0.00293849
    Solving
  0 KSP Residual norm 3.20369e-07 
  1 KSP Residual norm < 1.e-11
    Iter = 4, relRef = 2.83122e-09, res = 3.20369e-07, resAbs = 1.02636e-13, nIters = 1, maxD = 0.00293849
    Solving
  0 KSP Residual norm 8.43863e-08 
  1 KSP Residual norm < 1.e-11
    Iter = 5, relRef = 1.96434e-10, res = 8.43863e-08, resAbs = 7.12105e-15, nIters = 1, maxD = 0.00293849
    Solving
  0 KSP Residual norm 6.72062e-08 
  1 KSP Residual norm < 1.e-11
    Iter = 6, relRef = 1.24592e-10, res = 6.72062e-08, resAbs = 4.51667e-15, nIters = 1, maxD = 0.00293849
    Solving
  0 KSP Residual norm 3.43424e-08 
  1 KSP Residual norm < 1.e-11
    Iter = 7, relRef = 3.25337e-11, res = 3.43424e-08, resAbs = 1.1794e-15, nIters = 1, maxD = 0.00293849
    Converged
    Max DEpsilonPEq is 0.000271235
    28 cells (0.35% of the cells in this material) are actively yielding

ExecutionTime = 29.68 s  ClockTime = 32 s

Time = 6

Evolving solid solver
    Solving
  0 KSP Residual norm 0.00605025 
  1 KSP Residual norm < 1.e-11
    Initial residual = 3.66055e-05
    Iter = 0, relRef = 1, res = 0.00605025, resAbs = 3.66055e-05, nIters = 1, maxD = 0.00304089
    Solving
  0 KSP Residual norm 0.0001773 
  1 KSP Residual norm < 1.e-11
    Iter = 1, relRef = 0.000858761, res = 0.0001773, resAbs = 3.14354e-08, nIters = 1, maxD = 0.00304272
    Solving
  0 KSP Residual norm 1.8006e-05 
  1 KSP Residual norm < 1.e-11
    Iter = 2, relRef = 8.85706e-06, res = 1.8006e-05, resAbs = 3.24217e-10, nIters = 1, maxD = 0.00304291
    Solving
  0 KSP Residual norm 2.69528e-06 
  1 KSP Residual norm < 1.e-11
    Iter = 3, relRef = 1.98454e-07, res = 2.69528e-06, resAbs = 7.26451e-12, nIters = 1, maxD = 0.00304293
    Solving
  0 KSP Residual norm 8.45547e-07 
  1 KSP Residual norm < 1.e-11
    Iter = 4, relRef = 1.95312e-08, res = 8.45547e-07, resAbs = 7.1495e-13, nIters = 1, maxD = 0.00304294
    Solving
  0 KSP Residual norm 1.69348e-07 
  1 KSP Residual norm < 1.e-11
    Iter = 5, relRef = 7.83449e-10, res = 1.69348e-07, resAbs = 2.86786e-14, nIters = 1, maxD = 0.00304294
    Solving
  0 KSP Residual norm 1.70687e-07 
  1 KSP Residual norm < 1.e-11
    Iter = 6, relRef = 7.95895e-10, res = 1.70687e-07, resAbs = 2.91341e-14, nIters = 1, maxD = 0.00304294
    Solving
  0 KSP Residual norm 8.40362e-08 
  1 KSP Residual norm < 1.e-11
    Iter = 7, relRef = 1.92924e-10, res = 8.40362e-08, resAbs = 7.06209e-15, nIters = 1, maxD = 0.00304294
    Solving
  0 KSP Residual norm 5.3717e-08 
  1 KSP Residual norm < 1.e-11
    Iter = 8, relRef = 7.88273e-11, res = 5.3717e-08, resAbs = 2.88551e-15, nIters = 1, maxD = 0.00304294
    Converged
    Max DEpsilonPEq is 0.00028323
    35 cells (0.4375% of the cells in this material) are actively yielding

Max pEpsilonEq = 0.00461698
Max epsilonEq = 0.00461698
Max sigmaEq (von Mises stress) = 2.43e+08
ExecutionTime = 33.04 s  ClockTime = 35 s

Time = 6.2

Evolving solid solver
    Solving
  0 KSP Residual norm 0.00607604 
  1 KSP Residual norm < 1.e-11
    Initial residual = 3.69182e-05
    Iter = 0, relRef = 1, res = 0.00607604, resAbs = 3.69182e-05, nIters = 1, maxD = 0.00314564
    Solving
  0 KSP Residual norm 0.000231409 
  1 KSP Residual norm < 1.e-11
    Iter = 1, relRef = 0.0014505, res = 0.000231409, resAbs = 5.355e-08, nIters = 1, maxD = 0.00314805
    Solving
  0 KSP Residual norm 2.19912e-05 
  1 KSP Residual norm < 1.e-11
    Iter = 2, relRef = 1.30995e-05, res = 2.19912e-05, resAbs = 4.83612e-10, nIters = 1, maxD = 0.00314828
    Solving
  0 KSP Residual norm 4.52047e-06 
  1 KSP Residual norm < 1.e-11
    Iter = 3, relRef = 5.53511e-07, res = 4.52047e-06, resAbs = 2.04346e-11, nIters = 1, maxD = 0.00314833
    Solving
  0 KSP Residual norm 1.30546e-06 
  1 KSP Residual norm < 1.e-11
    Iter = 4, relRef = 4.61625e-08, res = 1.30546e-06, resAbs = 1.70424e-12, nIters = 1, maxD = 0.00314834
    Solving
  0 KSP Residual norm 3.11854e-07 
  1 KSP Residual norm < 1.e-11
    Iter = 5, relRef = 2.63428e-09, res = 3.11854e-07, resAbs = 9.72529e-14, nIters = 1, maxD = 0.00314834
    Solving
  0 KSP Residual norm 3.5176e-07 
  1 KSP Residual norm < 1.e-11
    Iter = 6, relRef = 3.35161e-09, res = 3.5176e-07, resAbs = 1.23735e-13, nIters = 1, maxD = 0.00314834
    Solving
  0 KSP Residual norm 1.87317e-07 
  1 KSP Residual norm < 1.e-11
    Iter = 7, relRef = 9.50417e-10, res = 1.87317e-07, resAbs = 3.50877e-14, nIters = 1, maxD = 0.00314834
    Solving
  0 KSP Residual norm 1.3944e-07 
  1 KSP Residual norm < 1.e-11
    Iter = 8, relRef = 5.26663e-10, res = 1.3944e-07, resAbs = 1.94435e-14, nIters = 1, maxD = 0.00314834
    Solving
  0 KSP Residual norm 8.60041e-08 
  1 KSP Residual norm < 1.e-11
    Iter = 9, relRef = 2.00354e-10, res = 8.60041e-08, resAbs = 7.39671e-15, nIters = 1, maxD = 0.00314834
    Solving
  0 KSP Residual norm 5.8273e-08 
  1 KSP Residual norm < 1.e-11
    Iter = 10, relRef = 9.19802e-11, res = 5.8273e-08, resAbs = 3.39574e-15, nIters = 1, maxD = 0.00314834
    Converged
    Max DEpsilonPEq is 0.000300429
    43 cells (0.5375% of the cells in this material) are actively yielding

ExecutionTime = 36.86 s  ClockTime = 39 s

Time = 6.4

Evolving solid solver
    Solving
  0 KSP Residual norm 0.00610226 
  1 KSP Residual norm < 1.e-11
    Initial residual = 3.72375e-05
    Iter = 0, relRef = 1, res = 0.00610226, resAbs = 3.72375e-05, nIters = 1, maxD = 0.00325135
    Solving
  0 KSP Residual norm 0.000273631 
  1 KSP Residual norm < 1.e-11
    Iter = 1, relRef = 0.00201072, res = 0.000273631, resAbs = 7.48742e-08, nIters = 1, maxD = 0.00325421
    Solving
  0 KSP Residual norm 3.3541e-05 
  1 KSP Residual norm < 1.e-11
    Iter = 2, relRef = 3.02115e-05, res = 3.3541e-05, resAbs = 1.125e-09, nIters = 1, maxD = 0.00325457
    Solving
  0 KSP Residual norm 5.77993e-06 
  1 KSP Residual norm < 1.e-11
    Iter = 3, relRef = 8.97149e-07, res = 5.77993e-06, resAbs = 3.34076e-11, nIters = 1, maxD = 0.00325463
    Solving
  0 KSP Residual norm 2.01606e-06 
  1 KSP Residual norm < 1.e-11
    Iter = 4, relRef = 1.09151e-07, res = 2.01606e-06, resAbs = 4.06451e-12, nIters = 1, maxD = 0.00325465
    Solving
  0 KSP Residual norm 4.12735e-07 
  1 KSP Residual norm < 1.e-11
    Iter = 5, relRef = 4.57469e-09, res = 4.12735e-07, resAbs = 1.7035e-13, nIters = 1, maxD = 0.00325464
    Solving
  0 KSP Residual norm 4.79106e-07 
  1 KSP Residual norm < 1.e-11
    Iter = 6, relRef = 6.16429e-09, res = 4.79106e-07, resAbs = 2.29543e-13, nIters = 1, maxD = 0.00325465
    Solving
  0 KSP Residual norm 2.517e-07 
  1 KSP Residual norm < 1.e-11
    Iter = 7, relRef = 1.70131e-09, res = 2.517e-07, resAbs = 6.33528e-14, nIters = 1, maxD = 0.00325465
    Solving
  0 KSP Residual norm 1.8492e-07 
  1 KSP Residual norm < 1.e-11
    Iter = 8, relRef = 9.18301e-10, res = 1.8492e-07, resAbs = 3.41953e-14, nIters = 1, maxD = 0.00325465
    Solving
  0 KSP Residual norm 1.14941e-07 
  1 KSP Residual norm < 1.e-11
    Iter = 9, relRef = 3.54791e-10, res = 1.14941e-07, resAbs = 1.32115e-14, nIters = 1, maxD = 0.00325465
    Solving
  0 KSP Residual norm 7.78104e-08 
  1 KSP Residual norm < 1.e-11
    Iter = 10, relRef = 1.6259e-10, res = 7.78104e-08, resAbs = 6.05445e-15, nIters = 1, maxD = 0.00325465
    Solving
  0 KSP Residual norm 5.03301e-08 
  1 KSP Residual norm < 1.e-11
    Iter = 11, relRef = 6.8026e-11, res = 5.03301e-08, resAbs = 2.53312e-15, nIters = 1, maxD = 0.00325465
    Converged
    Max DEpsilonPEq is 0.000307719
    51 cells (0.6375% of the cells in this material) are actively yielding

ExecutionTime = 41.11 s  ClockTime = 44 s

Time = 6.6

Evolving solid solver
    Solving
  0 KSP Residual norm 0.00612968 
  1 KSP Residual norm < 1.e-11
    Initial residual = 3.75729e-05
    Iter = 0, relRef = 1, res = 0.00612968, resAbs = 3.75729e-05, nIters = 1, maxD = 0.00335798
    Solving
  0 KSP Residual norm 0.00033242 
  1 KSP Residual norm < 1.e-11
    Iter = 1, relRef = 0.00294102, res = 0.00033242, resAbs = 1.10503e-07, nIters = 1, maxD = 0.00336147
    Solving
  0 KSP Residual norm 3.86798e-05 
  1 KSP Residual norm < 1.e-11
    Iter = 2, relRef = 3.98193e-05, res = 3.86798e-05, resAbs = 1.49613e-09, nIters = 1, maxD = 0.00336189
    Solving
  0 KSP Residual norm 9.64575e-06 
  1 KSP Residual norm < 1.e-11
    Iter = 3, relRef = 2.47627e-06, res = 9.64575e-06, resAbs = 9.30406e-11, nIters = 1, maxD = 0.00336199
    Solving
  0 KSP Residual norm 2.87302e-06 
  1 KSP Residual norm < 1.e-11
    Iter = 4, relRef = 2.19687e-07, res = 2.87302e-06, resAbs = 8.25427e-12, nIters = 1, maxD = 0.00336202
    Solving
  0 KSP Residual norm 4.55492e-07 
  1 KSP Residual norm < 1.e-11
    Iter = 5, relRef = 5.52186e-09, res = 4.55492e-07, resAbs = 2.07473e-13, nIters = 1, maxD = 0.00336202
    Solving
  0 KSP Residual norm 5.98898e-07 
  1 KSP Residual norm < 1.e-11
    Iter = 6, relRef = 9.54619e-09, res = 5.98898e-07, resAbs = 3.58678e-13, nIters = 1, maxD = 0.00336203
    Solving
  0 KSP Residual norm 2.29236e-07 
  1 KSP Residual norm < 1.e-11
    Iter = 7, relRef = 1.39859e-09, res = 2.29236e-07, resAbs = 5.2549e-14, nIters = 1, maxD = 0.00336203
    Solving
  0 KSP Residual norm 2.15313e-07 
  1 KSP Residual norm < 1.e-11
    Iter = 8, relRef = 1.23386e-09, res = 2.15313e-07, resAbs = 4.63596e-14, nIters = 1, maxD = 0.00336203
    Solving
  0 KSP Residual norm 1.21097e-07 
  1 KSP Residual norm < 1.e-11
    Iter = 9, relRef = 3.90294e-10, res = 1.21097e-07, resAbs = 1.46645e-14, nIters = 1, maxD = 0.00336203
    Solving
  0 KSP Residual norm 9.09768e-08 
  1 KSP Residual norm < 1.e-11
    Iter = 10, relRef = 2.20286e-10, res = 9.09768e-08, resAbs = 8.27679e-15, nIters = 1, maxD = 0.00336203
    Solving
  0 KSP Residual norm 5.75361e-08 
  1 KSP Residual norm < 1.e-11
    Iter = 11, relRef = 8.81062e-11, res = 5.75361e-08, resAbs = 3.31041e-15, nIters = 1, maxD = 0.00336203
    Converged
    Max DEpsilonPEq is 0.000320166
    58 cells (0.725% of the cells in this material) are actively yielding

ExecutionTime = 45.26 s  ClockTime = 48 s

Time = 6.8

Evolving solid solver
    Solving
  0 KSP Residual norm 0.00615189 
  1 KSP Residual norm < 1.e-11
    Initial residual = 3.78457e-05
    Iter = 0, relRef = 1, res = 0.00615189, resAbs = 3.78457e-05, nIters = 1, maxD = 0.00346562
    Solving
  0 KSP Residual norm 0.000400736 
  1 KSP Residual norm < 1.e-11
    Iter = 1, relRef = 0.00424326, res = 0.000400736, resAbs = 1.60589e-07, nIters = 1, maxD = 0.00346985
    Solving
  0 KSP Residual norm 4.78228e-05 
  1 KSP Residual norm < 1.e-11
    Iter = 2, relRef = 6.04301e-05, res = 4.78228e-05, resAbs = 2.28702e-09, nIters = 1, maxD = 0.00347037
    Solving
  0 KSP Residual norm 1.34849e-05 
  1 KSP Residual norm < 1.e-11
    Iter = 3, relRef = 4.80483e-06, res = 1.34849e-05, resAbs = 1.81843e-10, nIters = 1, maxD = 0.00347051
    Solving
  0 KSP Residual norm 3.14257e-06 
  1 KSP Residual norm < 1.e-11
    Iter = 4, relRef = 2.60947e-07, res = 3.14257e-06, resAbs = 9.87574e-12, nIters = 1, maxD = 0.00347054
    Solving
  0 KSP Residual norm 8.62819e-07 
  1 KSP Residual norm < 1.e-11
    Iter = 5, relRef = 1.96708e-08, res = 8.62819e-07, resAbs = 7.44456e-13, nIters = 1, maxD = 0.00347055
    Solving
  0 KSP Residual norm 5.61459e-07 
  1 KSP Residual norm < 1.e-11
    Iter = 6, relRef = 8.32949e-09, res = 5.61459e-07, resAbs = 3.15236e-13, nIters = 1, maxD = 0.00347056
    Solving
  0 KSP Residual norm 1.64908e-07 
  1 KSP Residual norm < 1.e-11
    Iter = 7, relRef = 7.18567e-10, res = 1.64908e-07, resAbs = 2.71947e-14, nIters = 1, maxD = 0.00347056
    Solving
  0 KSP Residual norm 1.99616e-07 
  1 KSP Residual norm < 1.e-11
    Iter = 8, relRef = 1.05287e-09, res = 1.99616e-07, resAbs = 3.98465e-14, nIters = 1, maxD = 0.00347056
    Solving
  0 KSP Residual norm 1.00439e-07 
  1 KSP Residual norm < 1.e-11
    Iter = 9, relRef = 2.66557e-10, res = 1.00439e-07, resAbs = 1.00881e-14, nIters = 1, maxD = 0.00347056
    Solving
  0 KSP Residual norm 8.94187e-08 
  1 KSP Residual norm < 1.e-11
    Iter = 10, relRef = 2.11271e-10, res = 8.94187e-08, resAbs = 7.9957e-15, nIters = 1, maxD = 0.00347056
    Solving
  0 KSP Residual norm 5.56728e-08 
  1 KSP Residual norm < 1.e-11
    Iter = 11, relRef = 8.18973e-11, res = 5.56728e-08, resAbs = 3.09947e-15, nIters = 1, maxD = 0.00347056
    Converged
    Max DEpsilonPEq is 0.000332278
    65 cells (0.8125% of the cells in this material) are actively yielding

ExecutionTime = 49.55 s  ClockTime = 53 s

Time = 7

Evolving solid solver
    Solving
  0 KSP Residual norm 0.00617187 
  1 KSP Residual norm < 1.e-11
    Initial residual = 3.80919e-05
    Iter = 0, relRef = 1, res = 0.00617187, resAbs = 3.80919e-05, nIters = 1, maxD = 0.00357439
    Solving
  0 KSP Residual norm 0.000457718 
  1 KSP Residual norm < 1.e-11
    Iter = 1, relRef = 0.00549999, res = 0.000457718, resAbs = 2.09505e-07, nIters = 1, maxD = 0.00357925
    Solving
  0 KSP Residual norm 6.89456e-05 
  1 KSP Residual norm < 1.e-11
    Iter = 2, relRef = 0.00012479, res = 6.89456e-05, resAbs = 4.75349e-09, nIters = 1, maxD = 0.00358
    Solving
  0 KSP Residual norm 1.8392e-05 
  1 KSP Residual norm < 1.e-11
    Iter = 3, relRef = 8.88021e-06, res = 1.8392e-05, resAbs = 3.38264e-10, nIters = 1, maxD = 0.0035802
    Solving
  0 KSP Residual norm 5.19259e-06 
  1 KSP Residual norm < 1.e-11
    Iter = 4, relRef = 7.07841e-07, res = 5.19259e-06, resAbs = 2.6963e-11, nIters = 1, maxD = 0.00358025
    Solving
  0 KSP Residual norm 1.05198e-06 
  1 KSP Residual norm < 1.e-11
    Iter = 5, relRef = 2.90522e-08, res = 1.05198e-06, resAbs = 1.10666e-12, nIters = 1, maxD = 0.00358026
    Solving
  0 KSP Residual norm 1.02529e-06 
  1 KSP Residual norm < 1.e-11
    Iter = 6, relRef = 2.75969e-08, res = 1.02529e-06, resAbs = 1.05122e-12, nIters = 1, maxD = 0.00358027
    Solving
  0 KSP Residual norm 2.95682e-07 
  1 KSP Residual norm < 1.e-11
    Iter = 7, relRef = 2.29517e-09, res = 2.95682e-07, resAbs = 8.74276e-14, nIters = 1, maxD = 0.00358027
    Solving
  0 KSP Residual norm 3.83042e-07 
  1 KSP Residual norm < 1.e-11
    Iter = 8, relRef = 3.85176e-09, res = 3.83042e-07, resAbs = 1.46721e-13, nIters = 1, maxD = 0.00358028
    Solving
  0 KSP Residual norm 1.99204e-07 
  1 KSP Residual norm < 1.e-11
    Iter = 9, relRef = 1.04175e-09, res = 1.99204e-07, resAbs = 3.96822e-14, nIters = 1, maxD = 0.00358027
    Solving
  0 KSP Residual norm 1.77194e-07 
  1 KSP Residual norm < 1.e-11
    Iter = 10, relRef = 8.24262e-10, res = 1.77194e-07, resAbs = 3.13977e-14, nIters = 1, maxD = 0.00358028
    Solving
  0 KSP Residual norm 1.11305e-07 
  1 KSP Residual norm < 1.e-11
    Iter = 11, relRef = 3.25236e-10, res = 1.11305e-07, resAbs = 1.23889e-14, nIters = 1, maxD = 0.00358028
    Solving
  0 KSP Residual norm 8.74975e-08 
  1 KSP Residual norm < 1.e-11
    Iter = 12, relRef = 2.00983e-10, res = 8.74975e-08, resAbs = 7.65582e-15, nIters = 1, maxD = 0.00358028
    Solving
  0 KSP Residual norm 5.90668e-08 
  1 KSP Residual norm < 1.e-11
    Iter = 13, relRef = 9.15912e-11, res = 5.90668e-08, resAbs = 3.48889e-15, nIters = 1, maxD = 0.00358028
    Converged
    Max DEpsilonPEq is 0.000343368
    77 cells (0.9625% of the cells in this material) are actively yielding

Max pEpsilonEq = 0.00619212
Max epsilonEq = 0.00619212
Max sigmaEq (von Mises stress) = 2.43e+08
ExecutionTime = 54.63 s  ClockTime = 58 s

Time = 7.2

Evolving solid solver
    Solving
  0 KSP Residual norm 0.00620464 
  1 KSP Residual norm < 1.e-11
    Initial residual = 3.84976e-05
    Iter = 0, relRef = 1, res = 0.00620464, resAbs = 3.84976e-05, nIters = 1, maxD = 0.00368449
    Solving
  0 KSP Residual norm 0.000519921 
  1 KSP Residual norm < 1.e-11
    Iter = 1, relRef = 0.00702169, res = 0.000519921, resAbs = 2.70318e-07, nIters = 1, maxD = 0.00369003
    Solving
  0 KSP Residual norm 7.74388e-05 
  1 KSP Residual norm < 1.e-11
    Iter = 2, relRef = 0.00015577, res = 7.74388e-05, resAbs = 5.99677e-09, nIters = 1, maxD = 0.00369088
    Solving
  0 KSP Residual norm 2.30412e-05 
  1 KSP Residual norm < 1.e-11
    Iter = 3, relRef = 1.37904e-05, res = 2.30412e-05, resAbs = 5.30897e-10, nIters = 1, maxD = 0.00369113
    Solving
  0 KSP Residual norm 6.20383e-06 
  1 KSP Residual norm < 1.e-11
    Iter = 4, relRef = 9.99736e-07, res = 6.20383e-06, resAbs = 3.84875e-11, nIters = 1, maxD = 0.00369119
    Solving
  0 KSP Residual norm 1.74871e-06 
  1 KSP Residual norm < 1.e-11
    Iter = 5, relRef = 7.9433e-08, res = 1.74871e-06, resAbs = 3.05798e-12, nIters = 1, maxD = 0.00369121
    Solving
  0 KSP Residual norm 1.08155e-06 
  1 KSP Residual norm < 1.e-11
    Iter = 6, relRef = 3.03851e-08, res = 1.08155e-06, resAbs = 1.16975e-12, nIters = 1, maxD = 0.00369122
    Solving
  0 KSP Residual norm 2.51844e-07 
  1 KSP Residual norm < 1.e-11
    Iter = 7, relRef = 1.64751e-09, res = 2.51844e-07, resAbs = 6.34254e-14, nIters = 1, maxD = 0.00369122
    Solving
  0 KSP Residual norm 3.46911e-07 
  1 KSP Residual norm < 1.e-11
    Iter = 8, relRef = 3.1261e-09, res = 3.46911e-07, resAbs = 1.20347e-13, nIters = 1, maxD = 0.00369123
    Solving
  0 KSP Residual norm 1.40704e-07 
  1 KSP Residual norm < 1.e-11
    Iter = 9, relRef = 5.14252e-10, res = 1.40704e-07, resAbs = 1.97975e-14, nIters = 1, maxD = 0.00369123
    Solving
  0 KSP Residual norm 1.48781e-07 
  1 KSP Residual norm < 1.e-11
    Iter = 10, relRef = 5.74991e-10, res = 1.48781e-07, resAbs = 2.21358e-14, nIters = 1, maxD = 0.00369123
    Solving
  0 KSP Residual norm 8.25839e-08 
  1 KSP Residual norm < 1.e-11
    Iter = 11, relRef = 1.77157e-10, res = 8.25839e-08, resAbs = 6.8201e-15, nIters = 1, maxD = 0.00369123
    Solving
  0 KSP Residual norm 7.16663e-08 
  1 KSP Residual norm < 1.e-11
    Iter = 12, relRef = 1.33412e-10, res = 7.16663e-08, resAbs = 5.13606e-15, nIters = 1, maxD = 0.00369123
    Solving
  0 KSP Residual norm 4.56642e-08 
  1 KSP Residual norm < 1.e-11
    Iter = 13, relRef = 5.4165e-11, res = 4.56642e-08, resAbs = 2.08522e-15, nIters = 1, maxD = 0.00369123
    Converged
    Max DEpsilonPEq is 0.000352919
    81 cells (1.0125% of the cells in this material) are actively yielding

ExecutionTime = 59.55 s  ClockTime = 63 s

Time = 7.4

Evolving solid solver
    Solving
  0 KSP Residual norm 0.00621675 
  1 KSP Residual norm < 1.e-11
    Initial residual = 3.86479e-05
    Iter = 0, relRef = 1, res = 0.00621675, resAbs = 3.86479e-05, nIters = 1, maxD = 0.00379559
    Solving
  0 KSP Residual norm 0.000610257 
  1 KSP Residual norm < 1.e-11
    Iter = 1, relRef = 0.00963604, res = 0.000610257, resAbs = 3.72413e-07, nIters = 1, maxD = 0.00380212
    Solving
  0 KSP Residual norm 9.43514e-05 
  1 KSP Residual norm < 1.e-11
    Iter = 2, relRef = 0.00023034, res = 9.43514e-05, resAbs = 8.90218e-09, nIters = 1, maxD = 0.00380315
    Solving
  0 KSP Residual norm 3.24993e-05 
  1 KSP Residual norm < 1.e-11
    Iter = 3, relRef = 2.73289e-05, res = 3.24993e-05, resAbs = 1.05621e-09, nIters = 1, maxD = 0.00380351
    Solving
  0 KSP Residual norm 8.24664e-06 
  1 KSP Residual norm < 1.e-11
    Iter = 4, relRef = 1.75966e-06, res = 8.24664e-06, resAbs = 6.80071e-11, nIters = 1, maxD = 0.0038036
    Solving
  0 KSP Residual norm 3.31536e-06 
  1 KSP Residual norm < 1.e-11
    Iter = 5, relRef = 2.84404e-07, res = 3.31536e-06, resAbs = 1.09916e-11, nIters = 1, maxD = 0.00380363
    Solving
  0 KSP Residual norm 1.24134e-06 
  1 KSP Residual norm < 1.e-11
    Iter = 6, relRef = 3.98706e-08, res = 1.24134e-06, resAbs = 1.54091e-12, nIters = 1, maxD = 0.00380365
    Solving
  0 KSP Residual norm 5.11046e-07 
  1 KSP Residual norm < 1.e-11
    Iter = 7, relRef = 6.75761e-09, res = 5.11046e-07, resAbs = 2.61168e-13, nIters = 1, maxD = 0.00380365
    Solving
  0 KSP Residual norm 3.08515e-07 
  1 KSP Residual norm < 1.e-11
    Iter = 8, relRef = 2.46279e-09, res = 3.08515e-07, resAbs = 9.51818e-14, nIters = 1, maxD = 0.00380365
    Solving
  0 KSP Residual norm 1.14862e-07 
  1 KSP Residual norm < 1.e-11
    Iter = 9, relRef = 3.41369e-10, res = 1.14862e-07, resAbs = 1.31932e-14, nIters = 1, maxD = 0.00380365
    Solving
  0 KSP Residual norm 1.10639e-07 
  1 KSP Residual norm < 1.e-11
    Iter = 10, relRef = 3.16731e-10, res = 1.10639e-07, resAbs = 1.2241e-14, nIters = 1, maxD = 0.00380366
    Solving
  0 KSP Residual norm 4.69313e-08 
  1 KSP Residual norm < 1.e-11
    Iter = 11, relRef = 5.69901e-11, res = 4.69313e-08, resAbs = 2.20255e-15, nIters = 1, maxD = 0.00380366
    Converged
    Max DEpsilonPEq is 0.00036671
    93 cells (1.1625% of the cells in this material) are actively yielding

ExecutionTime = 63.45 s  ClockTime = 68 s

Time = 7.6

Evolving solid solver
    Solving
  0 KSP Residual norm 0.00624767 
  1 KSP Residual norm < 1.e-11
    Initial residual = 3.90334e-05
    Iter = 0, relRef = 1, res = 0.00624767, resAbs = 3.90334e-05, nIters = 1, maxD = 0.00390838
    Solving
  0 KSP Residual norm 0.000677094 
  1 KSP Residual norm < 1.e-11
    Iter = 1, relRef = 0.0117452, res = 0.000677094, resAbs = 4.58456e-07, nIters = 1, maxD = 0.00391567
    Solving
  0 KSP Residual norm 0.000107566 
  1 KSP Residual norm < 1.e-11
    Iter = 2, relRef = 0.000296427, res = 0.000107566, resAbs = 1.15705e-08, nIters = 1, maxD = 0.00391685
    Solving
  0 KSP Residual norm 3.98935e-05 
  1 KSP Residual norm < 1.e-11
    Iter = 3, relRef = 4.07726e-05, res = 3.98935e-05, resAbs = 1.59149e-09, nIters = 1, maxD = 0.00391729
    Solving
  0 KSP Residual norm 1.02416e-05 
  1 KSP Residual norm < 1.e-11
    Iter = 4, relRef = 2.68718e-06, res = 1.02416e-05, resAbs = 1.0489e-10, nIters = 1, maxD = 0.0039174
    Solving
  0 KSP Residual norm 4.41489e-06 
  1 KSP Residual norm < 1.e-11
    Iter = 5, relRef = 4.99349e-07, res = 4.41489e-06, resAbs = 1.94913e-11, nIters = 1, maxD = 0.00391744
    Solving
  0 KSP Residual norm 1.68606e-06 
  1 KSP Residual norm < 1.e-11
    Iter = 6, relRef = 7.28296e-08, res = 1.68606e-06, resAbs = 2.84279e-12, nIters = 1, maxD = 0.00391746
    Solving
  0 KSP Residual norm 7.20314e-07 
  1 KSP Residual norm < 1.e-11
    Iter = 7, relRef = 1.32925e-08, res = 7.20314e-07, resAbs = 5.18852e-13, nIters = 1, maxD = 0.00391747
    Solving
  0 KSP Residual norm 4.77273e-07 
  1 KSP Residual norm < 1.e-11
    Iter = 8, relRef = 5.83575e-09, res = 4.77273e-07, resAbs = 2.27789e-13, nIters = 1, maxD = 0.00391747
    Solving
  0 KSP Residual norm 1.55887e-07 
  1 KSP Residual norm < 1.e-11
    Iter = 9, relRef = 6.2256e-10, res = 1.55887e-07, resAbs = 2.43006e-14, nIters = 1, maxD = 0.00391748
    Solving
  0 KSP Residual norm 1.91176e-07 
  1 KSP Residual norm < 1.e-11
    Iter = 10, relRef = 9.36329e-10, res = 1.91176e-07, resAbs = 3.65481e-14, nIters = 1, maxD = 0.00391748
    Solving
  0 KSP Residual norm 6.52411e-08 
  1 KSP Residual norm < 1.e-11
    Iter = 11, relRef = 1.09045e-10, res = 6.52411e-08, resAbs = 4.2564e-15, nIters = 1, maxD = 0.00391748
    Solving
  0 KSP Residual norm 9.16141e-08 
  1 KSP Residual norm < 1.e-11
    Iter = 12, relRef = 2.15025e-10, res = 9.16141e-08, resAbs = 8.39315e-15, nIters = 1, maxD = 0.00391748
    Solving
  0 KSP Residual norm 4.20932e-08 
  1 KSP Residual norm < 1.e-11
    Iter = 13, relRef = 4.5393e-11, res = 4.20932e-08, resAbs = 1.77184e-15, nIters = 1, maxD = 0.00391748
    Converged
    Max DEpsilonPEq is 0.000383793
    107 cells (1.3375% of the cells in this material) are actively yielding

ExecutionTime = 68.34 s  ClockTime = 73 s

Time = 7.8

Evolving solid solver
    Solving
  0 KSP Residual norm 0.00627814 
  1 KSP Residual norm < 1.e-11
    Initial residual = 3.94151e-05
    Iter = 0, relRef = 1, res = 0.00627814, resAbs = 3.94151e-05, nIters = 1, maxD = 0.00402257
    Solving
  0 KSP Residual norm 0.00073425 
  1 KSP Residual norm < 1.e-11
    Iter = 1, relRef = 0.0136781, res = 0.00073425, resAbs = 5.39123e-07, nIters = 1, maxD = 0.00403049
    Solving
  0 KSP Residual norm 0.000142834 
  1 KSP Residual norm < 1.e-11
    Iter = 2, relRef = 0.000517605, res = 0.000142834, resAbs = 2.04014e-08, nIters = 1, maxD = 0.00403207
    Solving
  0 KSP Residual norm 4.87636e-05 
  1 KSP Residual norm < 1.e-11
    Iter = 3, relRef = 6.03295e-05, res = 4.87636e-05, resAbs = 2.37789e-09, nIters = 1, maxD = 0.00403261
    Solving
  0 KSP Residual norm 1.53262e-05 
  1 KSP Residual norm < 1.e-11
    Iter = 4, relRef = 5.95947e-06, res = 1.53262e-05, resAbs = 2.34893e-10, nIters = 1, maxD = 0.00403278
    Solving
  0 KSP Residual norm 5.63989e-06 
  1 KSP Residual norm < 1.e-11
    Iter = 5, relRef = 8.07011e-07, res = 5.63989e-06, resAbs = 3.18084e-11, nIters = 1, maxD = 0.00403284
    Solving
  0 KSP Residual norm 2.70365e-06 
  1 KSP Residual norm < 1.e-11
    Iter = 6, relRef = 1.85455e-07, res = 2.70365e-06, resAbs = 7.30972e-12, nIters = 1, maxD = 0.00403287
    Solving
  0 KSP Residual norm 9.02455e-07 
  1 KSP Residual norm < 1.e-11
    Iter = 7, relRef = 2.06628e-08, res = 9.02455e-07, resAbs = 8.14425e-13, nIters = 1, maxD = 0.00403287
    Solving
  0 KSP Residual norm 7.65131e-07 
  1 KSP Residual norm < 1.e-11
    Iter = 8, relRef = 1.48528e-08, res = 7.65131e-07, resAbs = 5.85426e-13, nIters = 1, maxD = 0.00403288
    Solving
  0 KSP Residual norm 2.04438e-07 
  1 KSP Residual norm < 1.e-11
    Iter = 9, relRef = 1.06037e-09, res = 2.04438e-07, resAbs = 4.17947e-14, nIters = 1, maxD = 0.00403288
    Solving
  0 KSP Residual norm 3.00733e-07 
  1 KSP Residual norm < 1.e-11
    Iter = 10, relRef = 2.29456e-09, res = 3.00733e-07, resAbs = 9.04404e-14, nIters = 1, maxD = 0.00403289
    Solving
  0 KSP Residual norm 1.01867e-07 
  1 KSP Residual norm < 1.e-11
    Iter = 11, relRef = 2.6327e-10, res = 1.01867e-07, resAbs = 1.03768e-14, nIters = 1, maxD = 0.00403289
    Solving
  0 KSP Residual norm 1.42472e-07 
  1 KSP Residual norm < 1.e-11
    Iter = 12, relRef = 5.14986e-10, res = 1.42472e-07, resAbs = 2.02982e-14, nIters = 1, maxD = 0.00403289
    Solving
  0 KSP Residual norm 6.69628e-08 
  1 KSP Residual norm < 1.e-11
    Iter = 13, relRef = 1.13764e-10, res = 6.69628e-08, resAbs = 4.48402e-15, nIters = 1, maxD = 0.00403289
    Solving
  0 KSP Residual norm 7.44515e-08 
  1 KSP Residual norm < 1.e-11
    Iter = 14, relRef = 1.40632e-10, res = 7.44515e-08, resAbs = 5.54302e-15, nIters = 1, maxD = 0.00403289
    Solving
  0 KSP Residual norm 4.2807e-08 
  1 KSP Residual norm < 1.e-11
    Iter = 15, relRef = 4.64908e-11, res = 4.2807e-08, resAbs = 1.83244e-15, nIters = 1, maxD = 0.00403289
    Converged
    Max DEpsilonPEq is 0.000389238
    117 cells (1.4625% of the cells in this material) are actively yielding

ExecutionTime = 73.87 s  ClockTime = 79 s

Time = 8

Evolving solid solver
    Solving
  0 KSP Residual norm 0.00630348 
  1 KSP Residual norm < 1.e-11
    Initial residual = 3.97339e-05
    Iter = 0, relRef = 1, res = 0.00630348, resAbs = 3.97339e-05, nIters = 1, maxD = 0.00413828
    Solving
  0 KSP Residual norm 0.000830051 
  1 KSP Residual norm < 1.e-11
    Iter = 1, relRef = 0.01734, res = 0.000830051, resAbs = 6.88985e-07, nIters = 1, maxD = 0.00414726
    Solving
  0 KSP Residual norm 0.000153261 
  1 KSP Residual norm < 1.e-11
    Iter = 2, relRef = 0.000591156, res = 0.000153261, resAbs = 2.34889e-08, nIters = 1, maxD = 0.00414896
    Solving
  0 KSP Residual norm 6.00281e-05 
  1 KSP Residual norm < 1.e-11
    Iter = 3, relRef = 9.06877e-05, res = 6.00281e-05, resAbs = 3.60338e-09, nIters = 1, maxD = 0.00414963
    Solving
  0 KSP Residual norm 1.79874e-05 
  1 KSP Residual norm < 1.e-11
    Iter = 4, relRef = 8.1428e-06, res = 1.79874e-05, resAbs = 3.23545e-10, nIters = 1, maxD = 0.00414983
    Solving
  0 KSP Residual norm 7.84099e-06 
  1 KSP Residual norm < 1.e-11
    Iter = 5, relRef = 1.54732e-06, res = 7.84099e-06, resAbs = 6.14811e-11, nIters = 1, maxD = 0.00414992
    Solving
  0 KSP Residual norm 3.16263e-06 
  1 KSP Residual norm < 1.e-11
    Iter = 6, relRef = 2.51731e-07, res = 3.16263e-06, resAbs = 1.00022e-11, nIters = 1, maxD = 0.00414995
    Solving
  0 KSP Residual norm 1.47672e-06 
  1 KSP Residual norm < 1.e-11
    Iter = 7, relRef = 5.48829e-08, res = 1.47672e-06, resAbs = 2.18071e-12, nIters = 1, maxD = 0.00414997
    Solving
  0 KSP Residual norm 8.12464e-07 
  1 KSP Residual norm < 1.e-11
    Iter = 8, relRef = 1.66129e-08, res = 8.12464e-07, resAbs = 6.60097e-13, nIters = 1, maxD = 0.00414998
    Solving
  0 KSP Residual norm 3.47405e-07 
  1 KSP Residual norm < 1.e-11
    Iter = 9, relRef = 3.03746e-09, res = 3.47405e-07, resAbs = 1.2069e-13, nIters = 1, maxD = 0.00414998
    Solving
  0 KSP Residual norm 2.82294e-07 
  1 KSP Residual norm < 1.e-11
    Iter = 10, relRef = 2.0056e-09, res = 2.82294e-07, resAbs = 7.96901e-14, nIters = 1, maxD = 0.00414998
    Solving
  0 KSP Residual norm 1.03365e-07 
  1 KSP Residual norm < 1.e-11
    Iter = 11, relRef = 2.68896e-10, res = 1.03365e-07, resAbs = 1.06843e-14, nIters = 1, maxD = 0.00414998
    Solving
  0 KSP Residual norm 1.2155e-07 
  1 KSP Residual norm < 1.e-11
    Iter = 12, relRef = 3.71836e-10, res = 1.2155e-07, resAbs = 1.47745e-14, nIters = 1, maxD = 0.00414998
    Solving
  0 KSP Residual norm 4.66562e-08 
  1 KSP Residual norm < 1.e-11
    Iter = 13, relRef = 5.47846e-11, res = 4.66562e-08, resAbs = 2.1768e-15, nIters = 1, maxD = 0.00414998
    Converged
    Max DEpsilonPEq is 0.000402165
    125 cells (1.5625% of the cells in this material) are actively yielding

Max pEpsilonEq = 0.0080508
Max epsilonEq = 0.0080508
Max sigmaEq (von Mises stress) = 2.43e+08
ExecutionTime = 78.85 s  ClockTime = 84 s

Time = 8.2

Evolving solid solver
    Solving
  0 KSP Residual norm 0.00631993 
  1 KSP Residual norm < 1.e-11
    Initial residual = 3.99416e-05
    Iter = 0, relRef = 1, res = 0.00631993, resAbs = 3.99416e-05, nIters = 1, maxD = 0.00425558
    Solving
  0 KSP Residual norm 0.000924023 
  1 KSP Residual norm < 1.e-11
    Iter = 1, relRef = 0.0213767, res = 0.000924023, resAbs = 8.53819e-07, nIters = 1, maxD = 0.0042656
    Solving
  0 KSP Residual norm 0.000181614 
  1 KSP Residual norm < 1.e-11
    Iter = 2, relRef = 0.0008258, res = 0.000181614, resAbs = 3.29837e-08, nIters = 1, maxD = 0.00426762
    Solving
  0 KSP Residual norm 7.39001e-05 
  1 KSP Residual norm < 1.e-11
    Iter = 3, relRef = 0.00013673, res = 7.39001e-05, resAbs = 5.46122e-09, nIters = 1, maxD = 0.00426845
    Solving
  0 KSP Residual norm 2.28986e-05 
  1 KSP Residual norm < 1.e-11
    Iter = 4, relRef = 1.31279e-05, res = 2.28986e-05, resAbs = 5.24347e-10, nIters = 1, maxD = 0.0042687
    Solving
  0 KSP Residual norm 1.05513e-05 
  1 KSP Residual norm < 1.e-11
    Iter = 5, relRef = 2.78732e-06, res = 1.05513e-05, resAbs = 1.1133e-10, nIters = 1, maxD = 0.00426882
    Solving
  0 KSP Residual norm 4.11151e-06 
  1 KSP Residual norm < 1.e-11
    Iter = 6, relRef = 4.23232e-07, res = 4.11151e-06, resAbs = 1.69046e-11, nIters = 1, maxD = 0.00426887
    Solving
  0 KSP Residual norm 2.17116e-06 
  1 KSP Residual norm < 1.e-11
    Iter = 7, relRef = 1.18021e-07, res = 2.17116e-06, resAbs = 4.71394e-12, nIters = 1, maxD = 0.00426889
    Solving
  0 KSP Residual norm 1.00688e-06 
  1 KSP Residual norm < 1.e-11
    Iter = 8, relRef = 2.53823e-08, res = 1.00688e-06, resAbs = 1.01381e-12, nIters = 1, maxD = 0.0042689
    Solving
  0 KSP Residual norm 5.62234e-07 
  1 KSP Residual norm < 1.e-11
    Iter = 9, relRef = 7.91425e-09, res = 5.62234e-07, resAbs = 3.16107e-13, nIters = 1, maxD = 0.00426891
    Solving
  0 KSP Residual norm 3.16233e-07 
  1 KSP Residual norm < 1.e-11
    Iter = 10, relRef = 2.50373e-09, res = 3.16233e-07, resAbs = 1.00003e-13, nIters = 1, maxD = 0.00426891
    Solving
  0 KSP Residual norm 1.70453e-07 
  1 KSP Residual norm < 1.e-11
    Iter = 11, relRef = 7.2742e-10, res = 1.70453e-07, resAbs = 2.90543e-14, nIters = 1, maxD = 0.00426891
    Solving
  0 KSP Residual norm 1.21469e-07 
  1 KSP Residual norm < 1.e-11
    Iter = 12, relRef = 3.69409e-10, res = 1.21469e-07, resAbs = 1.47548e-14, nIters = 1, maxD = 0.00426891
    Solving
  0 KSP Residual norm 6.03228e-08 
  1 KSP Residual norm < 1.e-11
    Iter = 13, relRef = 9.11042e-11, res = 6.03228e-08, resAbs = 3.63884e-15, nIters = 1, maxD = 0.00426891
    Converged
    Max DEpsilonPEq is 0.00041972
    137 cells (1.7125% of the cells in this material) are actively yielding

ExecutionTime = 83.85 s  ClockTime = 89 s

Time = 8.4

Evolving solid solver
    Solving
  0 KSP Residual norm 0.00634583 
  1 KSP Residual norm < 1.e-11
    Initial residual = 4.02696e-05
    Iter = 0, relRef = 1, res = 0.00634583, resAbs = 4.02696e-05, nIters = 1, maxD = 0.00437482
    Solving
  0 KSP Residual norm 0.00101296 
  1 KSP Residual norm < 1.e-11
    Iter = 1, relRef = 0.0254804, res = 0.00101296, resAbs = 1.02609e-06, nIters = 1, maxD = 0.00438583
    Solving
  0 KSP Residual norm 0.000211711 
  1 KSP Residual norm < 1.e-11
    Iter = 2, relRef = 0.00111303, res = 0.000211711, resAbs = 4.48214e-08, nIters = 1, maxD = 0.0043882
    Solving
  0 KSP Residual norm 8.86507e-05 
  1 KSP Residual norm < 1.e-11
    Iter = 3, relRef = 0.000195158, res = 8.86507e-05, resAbs = 7.85894e-09, nIters = 1, maxD = 0.00438919
    Solving
  0 KSP Residual norm 2.91431e-05 
  1 KSP Residual norm < 1.e-11
    Iter = 4, relRef = 2.10909e-05, res = 2.91431e-05, resAbs = 8.49321e-10, nIters = 1, maxD = 0.00438952
    Solving
  0 KSP Residual norm 1.36458e-05 
  1 KSP Residual norm < 1.e-11
    Iter = 5, relRef = 4.62406e-06, res = 1.36458e-05, resAbs = 1.86209e-10, nIters = 1, maxD = 0.00438967
    Solving
  0 KSP Residual norm 5.58281e-06 
  1 KSP Residual norm < 1.e-11
    Iter = 6, relRef = 7.73979e-07, res = 5.58281e-06, resAbs = 3.11678e-11, nIters = 1, maxD = 0.00438973
    Solving
  0 KSP Residual norm 2.97317e-06 
  1 KSP Residual norm < 1.e-11
    Iter = 7, relRef = 2.19514e-07, res = 2.97317e-06, resAbs = 8.83975e-12, nIters = 1, maxD = 0.00438977
    Solving
  0 KSP Residual norm 1.4035e-06 
  1 KSP Residual norm < 1.e-11
    Iter = 8, relRef = 4.89157e-08, res = 1.4035e-06, resAbs = 1.96982e-12, nIters = 1, maxD = 0.00438978
    Solving
  0 KSP Residual norm 8.10414e-07 
  1 KSP Residual norm < 1.e-11
    Iter = 9, relRef = 1.63093e-08, res = 8.10414e-07, resAbs = 6.5677e-13, nIters = 1, maxD = 0.00438979
    Solving
  0 KSP Residual norm 4.35193e-07 
  1 KSP Residual norm < 1.e-11
    Iter = 10, relRef = 4.70313e-09, res = 4.35193e-07, resAbs = 1.89393e-13, nIters = 1, maxD = 0.0043898
    Solving
  0 KSP Residual norm 2.58303e-07 
  1 KSP Residual norm < 1.e-11
    Iter = 11, relRef = 1.65685e-09, res = 2.58303e-07, resAbs = 6.67207e-14, nIters = 1, maxD = 0.0043898
    Solving
  0 KSP Residual norm 1.60664e-07 
  1 KSP Residual norm < 1.e-11
    Iter = 12, relRef = 6.41006e-10, res = 1.60664e-07, resAbs = 2.5813e-14, nIters = 1, maxD = 0.0043898
    Solving
  0 KSP Residual norm 9.39236e-08 
  1 KSP Residual norm < 1.e-11
    Iter = 13, relRef = 2.19065e-10, res = 9.39236e-08, resAbs = 8.82165e-15, nIters = 1, maxD = 0.0043898
    Solving
  0 KSP Residual norm 6.86295e-08 
  1 KSP Residual norm < 1.e-11
    Iter = 14, relRef = 1.16962e-10, res = 6.86295e-08, resAbs = 4.71e-15, nIters = 1, maxD = 0.0043898
    Solving
  0 KSP Residual norm 3.904e-08 
  1 KSP Residual norm < 1.e-11
    Iter = 15, relRef = 3.78479e-11, res = 3.904e-08, resAbs = 1.52412e-15, nIters = 1, maxD = 0.0043898
    Converged
    Max DEpsilonPEq is 0.00043255
    152 cells (1.9% of the cells in this material) are actively yielding

ExecutionTime = 89.49 s  ClockTime = 95 s

Time = 8.6

Evolving solid solver
    Solving
  0 KSP Residual norm 0.00637717 
  1 KSP Residual norm < 1.e-11
    Initial residual = 4.06683e-05
    Iter = 0, relRef = 1, res = 0.00637717, resAbs = 4.06683e-05, nIters = 1, maxD = 0.00449608
    Solving
  0 KSP Residual norm 0.00109901 
  1 KSP Residual norm < 1.e-11
    Iter = 1, relRef = 0.0296996, res = 0.00109901, resAbs = 1.20783e-06, nIters = 1, maxD = 0.00450807
    Solving
  0 KSP Residual norm 0.00024323 
  1 KSP Residual norm < 1.e-11
    Iter = 2, relRef = 0.00145472, res = 0.00024323, resAbs = 5.91609e-08, nIters = 1, maxD = 0.00451079
    Solving
  0 KSP Residual norm 0.000105297 
  1 KSP Residual norm < 1.e-11
    Iter = 3, relRef = 0.000272631, res = 0.000105297, resAbs = 1.10874e-08, nIters = 1, maxD = 0.00451197
    Solving
  0 KSP Residual norm 3.64284e-05 
  1 KSP Residual norm < 1.e-11
    Iter = 4, relRef = 3.26306e-05, res = 3.64284e-05, resAbs = 1.32703e-09, nIters = 1, maxD = 0.00451238
    Solving
  0 KSP Residual norm 1.73192e-05 
  1 KSP Residual norm < 1.e-11
    Iter = 5, relRef = 7.37564e-06, res = 1.73192e-05, resAbs = 2.99955e-10, nIters = 1, maxD = 0.00451258
    Solving
  0 KSP Residual norm 7.39358e-06 
  1 KSP Residual norm < 1.e-11
    Iter = 6, relRef = 1.34417e-06, res = 7.39358e-06, resAbs = 5.46651e-11, nIters = 1, maxD = 0.00451266
    Solving
  0 KSP Residual norm 3.9905e-06 
  1 KSP Residual norm < 1.e-11
    Iter = 7, relRef = 3.91561e-07, res = 3.9905e-06, resAbs = 1.59241e-11, nIters = 1, maxD = 0.0045127
    Solving
  0 KSP Residual norm 1.94047e-06 
  1 KSP Residual norm < 1.e-11
    Iter = 8, relRef = 9.25888e-08, res = 1.94047e-06, resAbs = 3.76543e-12, nIters = 1, maxD = 0.00451273
    Solving
  0 KSP Residual norm 1.13549e-06 
  1 KSP Residual norm < 1.e-11
    Iter = 9, relRef = 3.1704e-08, res = 1.13549e-06, resAbs = 1.28935e-12, nIters = 1, maxD = 0.00451274
    Solving
  0 KSP Residual norm 6.16322e-07 
  1 KSP Residual norm < 1.e-11
    Iter = 10, relRef = 9.34027e-09, res = 6.16322e-07, resAbs = 3.79853e-13, nIters = 1, maxD = 0.00451274
    Solving
  0 KSP Residual norm 3.7176e-07 
  1 KSP Residual norm < 1.e-11
    Iter = 11, relRef = 3.39835e-09, res = 3.7176e-07, resAbs = 1.38205e-13, nIters = 1, maxD = 0.00451275
    Solving
  0 KSP Residual norm 2.27254e-07 
  1 KSP Residual norm < 1.e-11
    Iter = 12, relRef = 1.2699e-09, res = 2.27254e-07, resAbs = 5.16445e-14, nIters = 1, maxD = 0.00451275
    Solving
  0 KSP Residual norm 1.35407e-07 
  1 KSP Residual norm < 1.e-11
    Iter = 13, relRef = 4.50847e-10, res = 1.35407e-07, resAbs = 1.83352e-14, nIters = 1, maxD = 0.00451275
    Solving
  0 KSP Residual norm 9.47156e-08 
  1 KSP Residual norm < 1.e-11
    Iter = 14, relRef = 2.20591e-10, res = 9.47156e-08, resAbs = 8.97104e-15, nIters = 1, maxD = 0.00451275
    Solving
  0 KSP Residual norm 5.43575e-08 
  1 KSP Residual norm < 1.e-11
    Iter = 15, relRef = 7.26547e-11, res = 5.43575e-08, resAbs = 2.95474e-15, nIters = 1, maxD = 0.00451275
    Converged
    Max DEpsilonPEq is 0.000446166
    170 cells (2.125% of the cells in this material) are actively yielding

ExecutionTime = 94.95 s  ClockTime = 101 s

Time = 8.8

Evolving solid solver
    Solving
  0 KSP Residual norm 0.00641157 
  1 KSP Residual norm < 1.e-11
    Initial residual = 4.11083e-05
    Iter = 0, relRef = 1, res = 0.00641157, resAbs = 4.11083e-05, nIters = 1, maxD = 0.00461945
    Solving
  0 KSP Residual norm 0.00120923 
  1 KSP Residual norm < 1.e-11
    Iter = 1, relRef = 0.0355706, res = 0.00120923, resAbs = 1.46224e-06, nIters = 1, maxD = 0.00463267
    Solving
  0 KSP Residual norm 0.00026969 
  1 KSP Residual norm < 1.e-11
    Iter = 2, relRef = 0.00176929, res = 0.00026969, resAbs = 7.27326e-08, nIters = 1, maxD = 0.0046357
    Solving
  0 KSP Residual norm 0.000121516 
  1 KSP Residual norm < 1.e-11
    Iter = 3, relRef = 0.000359201, res = 0.000121516, resAbs = 1.47662e-08, nIters = 1, maxD = 0.00463706
    Solving
  0 KSP Residual norm 4.31101e-05 
  1 KSP Residual norm < 1.e-11
    Iter = 4, relRef = 4.52095e-05, res = 4.31101e-05, resAbs = 1.85848e-09, nIters = 1, maxD = 0.00463755
    Solving
  0 KSP Residual norm 2.10163e-05 
  1 KSP Residual norm < 1.e-11
    Iter = 5, relRef = 1.07444e-05, res = 2.10163e-05, resAbs = 4.41684e-10, nIters = 1, maxD = 0.00463779
    Solving
  0 KSP Residual norm 9.18729e-06 
  1 KSP Residual norm < 1.e-11
    Iter = 6, relRef = 2.05327e-06, res = 9.18729e-06, resAbs = 8.44064e-11, nIters = 1, maxD = 0.00463789
    Solving
  0 KSP Residual norm 5.08136e-06 
  1 KSP Residual norm < 1.e-11
    Iter = 7, relRef = 6.28103e-07, res = 5.08136e-06, resAbs = 2.58203e-11, nIters = 1, maxD = 0.00463795
    Solving
  0 KSP Residual norm 2.56447e-06 
  1 KSP Residual norm < 1.e-11
    Iter = 8, relRef = 1.5998e-07, res = 2.56447e-06, resAbs = 6.57651e-12, nIters = 1, maxD = 0.00463798
    Solving
  0 KSP Residual norm 1.53374e-06 
  1 KSP Residual norm < 1.e-11
    Iter = 9, relRef = 5.72233e-08, res = 1.53374e-06, resAbs = 2.35235e-12, nIters = 1, maxD = 0.00463799
    Solving
  0 KSP Residual norm 8.52441e-07 
  1 KSP Residual norm < 1.e-11
    Iter = 10, relRef = 1.76766e-08, res = 8.52441e-07, resAbs = 7.26656e-13, nIters = 1, maxD = 0.004638
    Solving
  0 KSP Residual norm 5.27245e-07 
  1 KSP Residual norm < 1.e-11
    Iter = 11, relRef = 6.76231e-09, res = 5.27245e-07, resAbs = 2.77987e-13, nIters = 1, maxD = 0.00463801
    Solving
  0 KSP Residual norm 3.30873e-07 
  1 KSP Residual norm < 1.e-11
    Iter = 12, relRef = 2.66313e-09, res = 3.30873e-07, resAbs = 1.09477e-13, nIters = 1, maxD = 0.00463801
    Solving
  0 KSP Residual norm 1.9964e-07 
  1 KSP Residual norm < 1.e-11
    Iter = 13, relRef = 9.69537e-10, res = 1.9964e-07, resAbs = 3.9856e-14, nIters = 1, maxD = 0.00463801
    Solving
  0 KSP Residual norm 1.44476e-07 
  1 KSP Residual norm < 1.e-11
    Iter = 14, relRef = 5.07764e-10, res = 1.44476e-07, resAbs = 2.08733e-14, nIters = 1, maxD = 0.00463802
    Solving
  0 KSP Residual norm 8.14969e-08 
  1 KSP Residual norm < 1.e-11
    Iter = 15, relRef = 1.61567e-10, res = 8.14969e-08, resAbs = 6.64174e-15, nIters = 1, maxD = 0.00463802
    Solving
  0 KSP Residual norm 6.91734e-08 
  1 KSP Residual norm < 1.e-11
    Iter = 16, relRef = 1.16399e-10, res = 6.91734e-08, resAbs = 4.78496e-15, nIters = 1, maxD = 0.00463802
    Solving
  0 KSP Residual norm 3.58647e-08 
  1 KSP Residual norm < 1.e-11
    Iter = 17, relRef = 3.129e-11, res = 3.58647e-08, resAbs = 1.28628e-15, nIters = 1, maxD = 0.00463802
    Converged
    Max DEpsilonPEq is 0.000455501
    187 cells (2.3375% of the cells in this material) are actively yielding

ExecutionTime = 101.27 s  ClockTime = 108 s

Time = 9

Evolving solid solver
    Solving
  0 KSP Residual norm 0.00644334 
  1 KSP Residual norm < 1.e-11
    Initial residual = 4.15166e-05
    Iter = 0, relRef = 1, res = 0.00644334, resAbs = 4.15166e-05, nIters = 1, maxD = 0.00474509
    Solving
  0 KSP Residual norm 0.00133624 
  1 KSP Residual norm < 1.e-11
    Iter = 1, relRef = 0.0430077, res = 0.00133624, resAbs = 1.78553e-06, nIters = 1, maxD = 0.00475974
    Solving
  0 KSP Residual norm 0.000303675 
  1 KSP Residual norm < 1.e-11
    Iter = 2, relRef = 0.00222124, res = 0.000303675, resAbs = 9.22184e-08, nIters = 1, maxD = 0.00476316
    Solving
  0 KSP Residual norm 0.000143078 
  1 KSP Residual norm < 1.e-11
    Iter = 3, relRef = 0.000493088, res = 0.000143078, resAbs = 2.04713e-08, nIters = 1, maxD = 0.00476477
    Solving
  0 KSP Residual norm 5.14139e-05 
  1 KSP Residual norm < 1.e-11
    Iter = 4, relRef = 6.36706e-05, res = 5.14139e-05, resAbs = 2.64339e-09, nIters = 1, maxD = 0.00476535
    Solving
  0 KSP Residual norm 2.56917e-05 
  1 KSP Residual norm < 1.e-11
    Iter = 5, relRef = 1.58987e-05, res = 2.56917e-05, resAbs = 6.60061e-10, nIters = 1, maxD = 0.00476565
    Solving
  0 KSP Residual norm 1.14054e-05 
  1 KSP Residual norm < 1.e-11
    Iter = 6, relRef = 3.13329e-06, res = 1.14054e-05, resAbs = 1.30083e-10, nIters = 1, maxD = 0.00476577
    Solving
  0 KSP Residual norm 6.42233e-06 
  1 KSP Residual norm < 1.e-11
    Iter = 7, relRef = 9.93489e-07, res = 6.42233e-06, resAbs = 4.12463e-11, nIters = 1, maxD = 0.00476585
    Solving
  0 KSP Residual norm 3.20435e-06 
  1 KSP Residual norm < 1.e-11
    Iter = 8, relRef = 2.4732e-07, res = 3.20435e-06, resAbs = 1.02679e-11, nIters = 1, maxD = 0.00476588
    Solving
  0 KSP Residual norm 1.97065e-06 
  1 KSP Residual norm < 1.e-11
    Iter = 9, relRef = 9.35401e-08, res = 1.97065e-06, resAbs = 3.88347e-12, nIters = 1, maxD = 0.0047659
    Solving
  0 KSP Residual norm 1.07167e-06 
  1 KSP Residual norm < 1.e-11
    Iter = 10, relRef = 2.76628e-08, res = 1.07167e-06, resAbs = 1.14847e-12, nIters = 1, maxD = 0.00476592
    Solving
  0 KSP Residual norm 6.91625e-07 
  1 KSP Residual norm < 1.e-11
    Iter = 11, relRef = 1.15218e-08, res = 6.91625e-07, resAbs = 4.78346e-13, nIters = 1, maxD = 0.00476592
    Solving
  0 KSP Residual norm 4.10274e-07 
  1 KSP Residual norm < 1.e-11
    Iter = 12, relRef = 4.05439e-09, res = 4.10274e-07, resAbs = 1.68324e-13, nIters = 1, maxD = 0.00476593
    Solving
  0 KSP Residual norm 2.66947e-07 
  1 KSP Residual norm < 1.e-11
    Iter = 13, relRef = 1.71644e-09, res = 2.66947e-07, resAbs = 7.12606e-14, nIters = 1, maxD = 0.00476593
    Solving
  0 KSP Residual norm 1.75206e-07 
  1 KSP Residual norm < 1.e-11
    Iter = 14, relRef = 7.39393e-10, res = 1.75206e-07, resAbs = 3.06971e-14, nIters = 1, maxD = 0.00476593
    Solving
  0 KSP Residual norm 1.10723e-07 
  1 KSP Residual norm < 1.e-11
    Iter = 15, relRef = 2.95292e-10, res = 1.10723e-07, resAbs = 1.22595e-14, nIters = 1, maxD = 0.00476593
    Solving
  0 KSP Residual norm 8.17898e-08 
  1 KSP Residual norm < 1.e-11
    Iter = 16, relRef = 1.6113e-10, res = 8.17898e-08, resAbs = 6.68958e-15, nIters = 1, maxD = 0.00476593
    Solving
  0 KSP Residual norm 4.88168e-08 
  1 KSP Residual norm < 1.e-11
    Iter = 17, relRef = 5.74007e-11, res = 4.88168e-08, resAbs = 2.38308e-15, nIters = 1, maxD = 0.00476593
    Converged
    Max DEpsilonPEq is 0.000473282
    212 cells (2.65% of the cells in this material) are actively yielding

Max pEpsilonEq = 0.0102275
Max epsilonEq = 0.0102275
Max sigmaEq (von Mises stress) = 2.43e+08
ExecutionTime = 107.82 s  ClockTime = 115 s

Time = 9.2

Evolving solid solver
    Solving
  0 KSP Residual norm 0.00648664 
  1 KSP Residual norm < 1.e-11
    Initial residual = 4.20766e-05
    Iter = 0, relRef = 1, res = 0.00648664, resAbs = 4.20766e-05, nIters = 1, maxD = 0.00487353
    Solving
  0 KSP Residual norm 0.00149715 
  1 KSP Residual norm < 1.e-11
    Iter = 1, relRef = 0.0532708, res = 0.00149715, resAbs = 2.24145e-06, nIters = 1, maxD = 0.00488996
    Solving
  0 KSP Residual norm 0.000339163 
  1 KSP Residual norm < 1.e-11
    Iter = 2, relRef = 0.00273387, res = 0.000339163, resAbs = 1.15032e-07, nIters = 1, maxD = 0.00489378
    Solving
  0 KSP Residual norm 0.000159945 
  1 KSP Residual norm < 1.e-11
    Iter = 3, relRef = 0.000607994, res = 0.000159945, resAbs = 2.55823e-08, nIters = 1, maxD = 0.00489559
    Solving
  0 KSP Residual norm 5.86853e-05 
  1 KSP Residual norm < 1.e-11
    Iter = 4, relRef = 8.18499e-05, res = 5.86853e-05, resAbs = 3.44396e-09, nIters = 1, maxD = 0.00489625
    Solving
  0 KSP Residual norm 2.98423e-05 
  1 KSP Residual norm < 1.e-11
    Iter = 5, relRef = 2.11653e-05, res = 2.98423e-05, resAbs = 8.90562e-10, nIters = 1, maxD = 0.00489659
    Solving
  0 KSP Residual norm 1.348e-05 
  1 KSP Residual norm < 1.e-11
    Iter = 6, relRef = 4.31857e-06, res = 1.348e-05, resAbs = 1.81711e-10, nIters = 1, maxD = 0.00489674
    Solving
  0 KSP Residual norm 7.81274e-06 
  1 KSP Residual norm < 1.e-11
    Iter = 7, relRef = 1.45066e-06, res = 7.81274e-06, resAbs = 6.10389e-11, nIters = 1, maxD = 0.00489683
    Solving
  0 KSP Residual norm 3.89284e-06 
  1 KSP Residual norm < 1.e-11
    Iter = 8, relRef = 3.60158e-07, res = 3.89284e-06, resAbs = 1.51542e-11, nIters = 1, maxD = 0.00489688
    Solving
  0 KSP Residual norm 2.54265e-06 
  1 KSP Residual norm < 1.e-11
    Iter = 9, relRef = 1.5365e-07, res = 2.54265e-06, resAbs = 6.46507e-12, nIters = 1, maxD = 0.0048969
    Solving
  0 KSP Residual norm 1.33145e-06 
  1 KSP Residual norm < 1.e-11
    Iter = 10, relRef = 4.21318e-08, res = 1.33145e-06, resAbs = 1.77276e-12, nIters = 1, maxD = 0.00489692
    Solving
  0 KSP Residual norm 9.32264e-07 
  1 KSP Residual norm < 1.e-11
    Iter = 11, relRef = 2.06556e-08, res = 9.32264e-07, resAbs = 8.69115e-13, nIters = 1, maxD = 0.00489693
    Solving
  0 KSP Residual norm 5.08286e-07 
  1 KSP Residual norm < 1.e-11
    Iter = 12, relRef = 6.1401e-09, res = 5.08286e-07, resAbs = 2.58354e-13, nIters = 1, maxD = 0.00489693
    Solving
  0 KSP Residual norm 3.76624e-07 
  1 KSP Residual norm < 1.e-11
    Iter = 13, relRef = 3.37112e-09, res = 3.76624e-07, resAbs = 1.41845e-13, nIters = 1, maxD = 0.00489694
    Solving
  0 KSP Residual norm 2.1294e-07 
  1 KSP Residual norm < 1.e-11
    Iter = 14, relRef = 1.07764e-09, res = 2.1294e-07, resAbs = 4.53433e-14, nIters = 1, maxD = 0.00489694
    Solving
  0 KSP Residual norm 1.63124e-07 
  1 KSP Residual norm < 1.e-11
    Iter = 15, relRef = 6.32409e-10, res = 1.63124e-07, resAbs = 2.66096e-14, nIters = 1, maxD = 0.00489694
    Solving
  0 KSP Residual norm 9.62038e-08 
  1 KSP Residual norm < 1.e-11
    Iter = 16, relRef = 2.1996e-10, res = 9.62038e-08, resAbs = 9.25517e-15, nIters = 1, maxD = 0.00489694
    Solving
  0 KSP Residual norm 7.44844e-08 
  1 KSP Residual norm < 1.e-11
    Iter = 17, relRef = 1.31853e-10, res = 7.44844e-08, resAbs = 5.54793e-15, nIters = 1, maxD = 0.00489694
    Solving
  0 KSP Residual norm 4.62544e-08 
  1 KSP Residual norm < 1.e-11
    Iter = 18, relRef = 5.0847e-11, res = 4.62544e-08, resAbs = 2.13947e-15, nIters = 1, maxD = 0.00489694
    Converged
    Max DEpsilonPEq is 0.000509926
    245 cells (3.0625% of the cells in this material) are actively yielding

ExecutionTime = 114.36 s  ClockTime = 122 s

Time = 9.4

Evolving solid solver
    Solving
  0 KSP Residual norm 0.0065446 
  1 KSP Residual norm < 1.e-11
    Initial residual = 4.28317e-05
    Iter = 0, relRef = 1, res = 0.0065446, resAbs = 4.28317e-05, nIters = 1, maxD = 0.00500523
    Solving
  0 KSP Residual norm 0.00171384 
  1 KSP Residual norm < 1.e-11
    Iter = 1, relRef = 0.0685762, res = 0.00171384, resAbs = 2.93724e-06, nIters = 1, maxD = 0.00502406
    Solving
  0 KSP Residual norm 0.000396217 
  1 KSP Residual norm < 1.e-11
    Iter = 2, relRef = 0.00366523, res = 0.000396217, resAbs = 1.56988e-07, nIters = 1, maxD = 0.00502852
    Solving
  0 KSP Residual norm 0.000184985 
  1 KSP Residual norm < 1.e-11
    Iter = 3, relRef = 0.000798925, res = 0.000184985, resAbs = 3.42194e-08, nIters = 1, maxD = 0.00503061
    Solving
  0 KSP Residual norm 6.61554e-05 
  1 KSP Residual norm < 1.e-11
    Iter = 4, relRef = 0.00010218, res = 6.61554e-05, resAbs = 4.37653e-09, nIters = 1, maxD = 0.00503136
    Solving
  0 KSP Residual norm 3.41469e-05 
  1 KSP Residual norm < 1.e-11
    Iter = 5, relRef = 2.7223e-05, res = 3.41469e-05, resAbs = 1.16601e-09, nIters = 1, maxD = 0.00503175
    Solving
  0 KSP Residual norm 1.53608e-05 
  1 KSP Residual norm < 1.e-11
    Iter = 6, relRef = 5.50886e-06, res = 1.53608e-05, resAbs = 2.35954e-10, nIters = 1, maxD = 0.00503192
    Solving
  0 KSP Residual norm 9.03166e-06 
  1 KSP Residual norm < 1.e-11
    Iter = 7, relRef = 1.90445e-06, res = 9.03166e-06, resAbs = 8.15709e-11, nIters = 1, maxD = 0.00503202
    Solving
  0 KSP Residual norm 4.47577e-06 
  1 KSP Residual norm < 1.e-11
    Iter = 8, relRef = 4.67703e-07, res = 4.47577e-06, resAbs = 2.00325e-11, nIters = 1, maxD = 0.00503207
    Solving
  0 KSP Residual norm 2.96196e-06 
  1 KSP Residual norm < 1.e-11
    Iter = 9, relRef = 2.04829e-07, res = 2.96196e-06, resAbs = 8.77318e-12, nIters = 1, maxD = 0.00503211
    Solving
  0 KSP Residual norm 1.54702e-06 
  1 KSP Residual norm < 1.e-11
    Iter = 10, relRef = 5.58764e-08, res = 1.54702e-06, resAbs = 2.39328e-12, nIters = 1, maxD = 0.00503212
    Solving
  0 KSP Residual norm 1.11644e-06 
  1 KSP Residual norm < 1.e-11
    Iter = 11, relRef = 2.91007e-08, res = 1.11644e-06, resAbs = 1.24643e-12, nIters = 1, maxD = 0.00503213
    Solving
  0 KSP Residual norm 6.01661e-07 
  1 KSP Residual norm < 1.e-11
    Iter = 12, relRef = 8.45158e-09, res = 6.01661e-07, resAbs = 3.61996e-13, nIters = 1, maxD = 0.00503214
    Solving
  0 KSP Residual norm 4.62961e-07 
  1 KSP Residual norm < 1.e-11
    Iter = 13, relRef = 5.00407e-09, res = 4.62961e-07, resAbs = 2.14333e-13, nIters = 1, maxD = 0.00503215
    Solving
  0 KSP Residual norm 2.55823e-07 
  1 KSP Residual norm < 1.e-11
    Iter = 14, relRef = 1.52796e-09, res = 2.55823e-07, resAbs = 6.54453e-14, nIters = 1, maxD = 0.00503215
    Solving
  0 KSP Residual norm 2.05951e-07 
  1 KSP Residual norm < 1.e-11
    Iter = 15, relRef = 9.9029e-10, res = 2.05951e-07, resAbs = 4.24158e-14, nIters = 1, maxD = 0.00503215
    Solving
  0 KSP Residual norm 1.16764e-07 
  1 KSP Residual norm < 1.e-11
    Iter = 16, relRef = 3.1831e-10, res = 1.16764e-07, resAbs = 1.36338e-14, nIters = 1, maxD = 0.00503215
    Solving
  0 KSP Residual norm 9.66821e-08 
  1 KSP Residual norm < 1.e-11
    Iter = 17, relRef = 2.18236e-10, res = 9.66821e-08, resAbs = 9.34742e-15, nIters = 1, maxD = 0.00503215
    Solving
  0 KSP Residual norm 5.64486e-08 
  1 KSP Residual norm < 1.e-11
    Iter = 18, relRef = 7.43945e-11, res = 5.64486e-08, resAbs = 3.18644e-15, nIters = 1, maxD = 0.00503215
    Converged
    Max DEpsilonPEq is 0.000568886
    292 cells (3.65% of the cells in this material) are actively yielding

ExecutionTime = 121.19 s  ClockTime = 129 s

Time = 9.6

Evolving solid solver
    Solving
  0 KSP Residual norm 0.00662597 
  1 KSP Residual norm < 1.e-11
    Initial residual = 4.39035e-05
    Iter = 0, relRef = 1, res = 0.00662597, resAbs = 4.39035e-05, nIters = 1, maxD = 0.0051414
    Solving
  0 KSP Residual norm 0.00202497 
  1 KSP Residual norm < 1.e-11
    Iter = 1, relRef = 0.0933981, res = 0.00202497, resAbs = 4.1005e-06, nIters = 1, maxD = 0.00516365
    Solving
  0 KSP Residual norm 0.00046817 
  1 KSP Residual norm < 1.e-11
    Iter = 2, relRef = 0.00499238, res = 0.00046817, resAbs = 2.19183e-07, nIters = 1, maxD = 0.00516891
    Solving
  0 KSP Residual norm 0.000220398 
  1 KSP Residual norm < 1.e-11
    Iter = 3, relRef = 0.00110641, res = 0.000220398, resAbs = 4.85752e-08, nIters = 1, maxD = 0.00517138
    Solving
  0 KSP Residual norm 7.86461e-05 
  1 KSP Residual norm < 1.e-11
    Iter = 4, relRef = 0.000140882, res = 7.86461e-05, resAbs = 6.18521e-09, nIters = 1, maxD = 0.00517227
    Solving
  0 KSP Residual norm 4.01047e-05 
  1 KSP Residual norm < 1.e-11
    Iter = 5, relRef = 3.66347e-05, res = 4.01047e-05, resAbs = 1.60839e-09, nIters = 1, maxD = 0.00517272
    Solving
  0 KSP Residual norm 1.74113e-05 
  1 KSP Residual norm < 1.e-11
    Iter = 6, relRef = 6.90497e-06, res = 1.74113e-05, resAbs = 3.03152e-10, nIters = 1, maxD = 0.00517292
    Solving
  0 KSP Residual norm 1.01919e-05 
  1 KSP Residual norm < 1.e-11
    Iter = 7, relRef = 2.36597e-06, res = 1.01919e-05, resAbs = 1.03874e-10, nIters = 1, maxD = 0.00517304
    Solving
  0 KSP Residual norm 4.99616e-06 
  1 KSP Residual norm < 1.e-11
    Iter = 8, relRef = 5.68556e-07, res = 4.99616e-06, resAbs = 2.49616e-11, nIters = 1, maxD = 0.00517309
    Solving
  0 KSP Residual norm 3.29895e-06 
  1 KSP Residual norm < 1.e-11
    Iter = 9, relRef = 2.47886e-07, res = 3.29895e-06, resAbs = 1.0883e-11, nIters = 1, maxD = 0.00517313
    Solving
  0 KSP Residual norm 1.72941e-06 
  1 KSP Residual norm < 1.e-11
    Iter = 10, relRef = 6.81234e-08, res = 1.72941e-06, resAbs = 2.99085e-12, nIters = 1, maxD = 0.00517315
    Solving
  0 KSP Residual norm 1.25109e-06 
  1 KSP Residual norm < 1.e-11
    Iter = 11, relRef = 3.56518e-08, res = 1.25109e-06, resAbs = 1.56524e-12, nIters = 1, maxD = 0.00517316
    Solving
  0 KSP Residual norm 6.81978e-07 
  1 KSP Residual norm < 1.e-11
    Iter = 12, relRef = 1.05935e-08, res = 6.81978e-07, resAbs = 4.65093e-13, nIters = 1, maxD = 0.00517317
    Solving
  0 KSP Residual norm 5.27685e-07 
  1 KSP Residual norm < 1.e-11
    Iter = 13, relRef = 6.34237e-09, res = 5.27685e-07, resAbs = 2.78452e-13, nIters = 1, maxD = 0.00517317
    Solving
  0 KSP Residual norm 2.95603e-07 
  1 KSP Residual norm < 1.e-11
    Iter = 14, relRef = 1.9903e-09, res = 2.95603e-07, resAbs = 8.73811e-14, nIters = 1, maxD = 0.00517317
    Solving
  0 KSP Residual norm 2.4024e-07 
  1 KSP Residual norm < 1.e-11
    Iter = 15, relRef = 1.3146e-09, res = 2.4024e-07, resAbs = 5.77154e-14, nIters = 1, maxD = 0.00517318
    Solving
  0 KSP Residual norm 1.37648e-07 
  1 KSP Residual norm < 1.e-11
    Iter = 16, relRef = 4.3156e-10, res = 1.37648e-07, resAbs = 1.8947e-14, nIters = 1, maxD = 0.00517318
    Solving
  0 KSP Residual norm 1.1589e-07 
  1 KSP Residual norm < 1.e-11
    Iter = 17, relRef = 3.05907e-10, res = 1.1589e-07, resAbs = 1.34304e-14, nIters = 1, maxD = 0.00517318
    Solving
  0 KSP Residual norm 6.77594e-08 
  1 KSP Residual norm < 1.e-11
    Iter = 18, relRef = 1.04578e-10, res = 6.77594e-08, resAbs = 4.59134e-15, nIters = 1, maxD = 0.00517318
    Solving
  0 KSP Residual norm 5.84934e-08 
  1 KSP Residual norm < 1.e-11
    Iter = 19, relRef = 7.79319e-11, res = 5.84934e-08, resAbs = 3.42148e-15, nIters = 1, maxD = 0.00517318
    Converged
    Max DEpsilonPEq is 0.000653176
    358 cells (4.475% of the cells in this material) are actively yielding

ExecutionTime = 128.4 s  ClockTime = 136 s

Time = 9.8

Evolving solid solver
    Solving
  0 KSP Residual norm 0.00672214 
  1 KSP Residual norm < 1.e-11
    Initial residual = 4.51871e-05
    Iter = 0, relRef = 1, res = 0.00672214, resAbs = 4.51871e-05, nIters = 1, maxD = 0.00528355
    Solving
  0 KSP Residual norm 0.0025355 
  1 KSP Residual norm < 1.e-11
    Iter = 1, relRef = 0.14227, res = 0.0025355, resAbs = 6.42877e-06, nIters = 1, maxD = 0.00531141
    Solving
  0 KSP Residual norm 0.000558266 
  1 KSP Residual norm < 1.e-11
    Iter = 2, relRef = 0.00689711, res = 0.000558266, resAbs = 3.1166e-07, nIters = 1, maxD = 0.00531764
    Solving
  0 KSP Residual norm 0.000293217 
  1 KSP Residual norm < 1.e-11
[...]
    0 cells (0% of the cells in this material) are actively yielding

ExecutionTime = 156.89 s  ClockTime = 166 s

Time = 13.6

Evolving solid solver
    Solving
  0 KSP Residual norm 0.00593694 
  1 KSP Residual norm < 1.e-11
    Initial residual = 3.52472e-05
    Iter = 0, relRef = 1, res = 0.00593694, resAbs = 3.52472e-05, nIters = 1, maxD = 0.00366741
    Solving
  0 KSP Residual norm < 1.e-11
    Iter = 1, relRef = 0, res = 0, resAbs = 0, nIters = 0, maxD = 0.00366741
    Converged
    Max DEpsilonPEq is 0
    0 cells (0% of the cells in this material) are actively yielding

ExecutionTime = 157.69 s  ClockTime = 167 s

Time = 13.8

Evolving solid solver
    Solving
  0 KSP Residual norm 0.00593694 
  1 KSP Residual norm < 1.e-11
    Initial residual = 3.52472e-05
    Iter = 0, relRef = 1, res = 0.00593694, resAbs = 3.52472e-05, nIters = 1, maxD = 0.00356631
    Solving
  0 KSP Residual norm < 1.e-11
    Iter = 1, relRef = 0, res = 0, resAbs = 0, nIters = 0, maxD = 0.00356631
    Converged
    Max DEpsilonPEq is 0
    0 cells (0% of the cells in this material) are actively yielding

ExecutionTime = 158.49 s  ClockTime = 168 s

Time = 14

Evolving solid solver
    Solving
  0 KSP Residual norm 0.00593694 
  1 KSP Residual norm < 1.e-11
    Initial residual = 3.52472e-05
    Iter = 0, relRef = 1, res = 0.00593694, resAbs = 3.52472e-05, nIters = 1, maxD = 0.00346521
    Solving
  0 KSP Residual norm < 1.e-11
    Iter = 1, relRef = 0, res = 0, resAbs = 0, nIters = 0, maxD = 0.00346521
    Converged
    Max DEpsilonPEq is 0
    0 cells (0% of the cells in this material) are actively yielding

Max pEpsilonEq = 0.0111236
Max epsilonEq = 0.0111236
Max sigmaEq (von Mises stress) = 1.69681e+08
ExecutionTime = 159.39 s  ClockTime = 169 s

Time = 14.2

Evolving solid solver
    Solving
  0 KSP Residual norm 0.00593694 
  1 KSP Residual norm < 1.e-11
    Initial residual = 3.52472e-05
    Iter = 0, relRef = 1, res = 0.00593694, resAbs = 3.52472e-05, nIters = 1, maxD = 0.00336411
    Solving
  0 KSP Residual norm < 1.e-11
    Iter = 1, relRef = 0, res = 0, resAbs = 0, nIters = 0, maxD = 0.00336411
    Converged
    Max DEpsilonPEq is 0
    0 cells (0% of the cells in this material) are actively yielding

ExecutionTime = 160.13 s  ClockTime = 170 s

Time = 14.4

Evolving solid solver
    Solving
  0 KSP Residual norm 0.00593694 
  1 KSP Residual norm < 1.e-11
    Initial residual = 3.52472e-05
    Iter = 0, relRef = 1, res = 0.00593694, resAbs = 3.52472e-05, nIters = 1, maxD = 0.00326301
    Solving
  0 KSP Residual norm < 1.e-11
    Iter = 1, relRef = 0, res = 0, resAbs = 0, nIters = 0, maxD = 0.00326301
    Converged
    Max DEpsilonPEq is 0
    0 cells (0% of the cells in this material) are actively yielding

ExecutionTime = 160.93 s  ClockTime = 171 s

Time = 14.6

Evolving solid solver
    Solving
  0 KSP Residual norm 0.00593694 
  1 KSP Residual norm < 1.e-11
    Initial residual = 3.52472e-05
    Iter = 0, relRef = 1, res = 0.00593694, resAbs = 3.52472e-05, nIters = 1, maxD = 0.00316191
    Solving
  0 KSP Residual norm < 1.e-11
    Iter = 1, relRef = 0, res = 0, resAbs = 0, nIters = 0, maxD = 0.00316191
    Converged
    Max DEpsilonPEq is 0
    0 cells (0% of the cells in this material) are actively yielding

ExecutionTime = 161.68 s  ClockTime = 171 s

Time = 14.8

Evolving solid solver
    Solving
  0 KSP Residual norm 0.00593694 
  1 KSP Residual norm < 1.e-11
    Initial residual = 3.52472e-05
    Iter = 0, relRef = 1, res = 0.00593694, resAbs = 3.52472e-05, nIters = 1, maxD = 0.00306081
    Solving
  0 KSP Residual norm < 1.e-11
    Iter = 1, relRef = 0, res = 0, resAbs = 0, nIters = 0, maxD = 0.00306081
    Converged
    Max DEpsilonPEq is 0
    0 cells (0% of the cells in this material) are actively yielding

ExecutionTime = 162.48 s  ClockTime = 172 s

Time = 15

Evolving solid solver
    Solving
  0 KSP Residual norm 0.00593694 
  1 KSP Residual norm < 1.e-11
    Initial residual = 3.52472e-05
    Iter = 0, relRef = 1, res = 0.00593694, resAbs = 3.52472e-05, nIters = 1, maxD = 0.00295972
    Solving
  0 KSP Residual norm < 1.e-11
    Iter = 1, relRef = 0, res = 0, resAbs = 0, nIters = 0, maxD = 0.00295972
    Converged
    Max DEpsilonPEq is 0
    0 cells (0% of the cells in this material) are actively yielding

Max pEpsilonEq = 0.0105031
Max epsilonEq = 0.0104989
Max sigmaEq (von Mises stress) = 1.51425e+08
ExecutionTime = 163.41 s  ClockTime = 173 s

Time = 15.2

Evolving solid solver
    Solving
  0 KSP Residual norm 0.00593694 
  1 KSP Residual norm < 1.e-11
    Initial residual = 3.52472e-05
    Iter = 0, relRef = 1, res = 0.00593694, resAbs = 3.52472e-05, nIters = 1, maxD = 0.00285862
    Solving
  0 KSP Residual norm < 1.e-11
    Iter = 1, relRef = 0, res = 0, resAbs = 0, nIters = 0, maxD = 0.00285862
    Converged
    Max DEpsilonPEq is 0
    0 cells (0% of the cells in this material) are actively yielding

ExecutionTime = 164.16 s  ClockTime = 174 s

Time = 15.4

Evolving solid solver
    Solving
  0 KSP Residual norm 0.00593694 
  1 KSP Residual norm < 1.e-11
    Initial residual = 3.52472e-05
    Iter = 0, relRef = 1, res = 0.00593694, resAbs = 3.52472e-05, nIters = 1, maxD = 0.00275752
    Solving
  0 KSP Residual norm < 1.e-11
    Iter = 1, relRef = 0, res = 0, resAbs = 0, nIters = 0, maxD = 0.00275752
    Converged
    Max DEpsilonPEq is 0
    0 cells (0% of the cells in this material) are actively yielding

ExecutionTime = 164.95 s  ClockTime = 175 s

Time = 15.6

Evolving solid solver
    Solving
  0 KSP Residual norm 0.00593694 
  1 KSP Residual norm < 1.e-11
    Initial residual = 3.52472e-05
    Iter = 0, relRef = 1, res = 0.00593694, resAbs = 3.52472e-05, nIters = 1, maxD = 0.00265642
    Solving
  0 KSP Residual norm < 1.e-11
    Iter = 1, relRef = 0, res = 0, resAbs = 0, nIters = 0, maxD = 0.00265642
    Converged
    Max DEpsilonPEq is 0
    0 cells (0% of the cells in this material) are actively yielding

ExecutionTime = 165.73 s  ClockTime = 176 s

Time = 15.8

Evolving solid solver
    Solving
  0 KSP Residual norm 0.00593694 
  1 KSP Residual norm < 1.e-11
    Initial residual = 3.52472e-05
    Iter = 0, relRef = 1, res = 0.00593694, resAbs = 3.52472e-05, nIters = 1, maxD = 0.00255532
    Solving
  0 KSP Residual norm < 1.e-11
    Iter = 1, relRef = 0, res = 0, resAbs = 0, nIters = 0, maxD = 0.00255532
    Converged
    Max DEpsilonPEq is 0
    0 cells (0% of the cells in this material) are actively yielding

ExecutionTime = 166.51 s  ClockTime = 176 s

Time = 16

Evolving solid solver
    Solving
  0 KSP Residual norm 0.00593694 
  1 KSP Residual norm < 1.e-11
    Initial residual = 3.52472e-05
    Iter = 0, relRef = 1, res = 0.00593694, resAbs = 3.52472e-05, nIters = 1, maxD = 0.00245422
    Solving
  0 KSP Residual norm < 1.e-11
    Iter = 1, relRef = 0, res = 0, resAbs = 0, nIters = 0, maxD = 0.00245422
    Converged
    Max DEpsilonPEq is 0
    0 cells (0% of the cells in this material) are actively yielding

Max pEpsilonEq = 0.00989824
Max epsilonEq = 0.00987616
Max sigmaEq (von Mises stress) = 1.33229e+08
ExecutionTime = 167.42 s  ClockTime = 177 s

Time = 16.2

Evolving solid solver
    Solving
  0 KSP Residual norm 0.00593694 
  1 KSP Residual norm < 1.e-11
    Initial residual = 3.52472e-05
    Iter = 0, relRef = 1, res = 0.00593694, resAbs = 3.52472e-05, nIters = 1, maxD = 0.00235312
    Solving
  0 KSP Residual norm < 1.e-11
    Iter = 1, relRef = 0, res = 0, resAbs = 0, nIters = 0, maxD = 0.00235312
    Converged
    Max DEpsilonPEq is 0
    0 cells (0% of the cells in this material) are actively yielding

ExecutionTime = 168.2 s  ClockTime = 178 s

Time = 16.4

Evolving solid solver
    Solving
  0 KSP Residual norm 0.00593694 
  1 KSP Residual norm < 1.e-11
    Initial residual = 3.52472e-05
    Iter = 0, relRef = 1, res = 0.00593694, resAbs = 3.52472e-05, nIters = 1, maxD = 0.00225202
    Solving
  0 KSP Residual norm < 1.e-11
    Iter = 1, relRef = 0, res = 0, resAbs = 0, nIters = 0, maxD = 0.00225202
    Converged
    Max DEpsilonPEq is 0
    0 cells (0% of the cells in this material) are actively yielding

ExecutionTime = 168.98 s  ClockTime = 179 s

Time = 16.6

Evolving solid solver
    Solving
  0 KSP Residual norm 0.00593694 
  1 KSP Residual norm < 1.e-11
    Initial residual = 3.52472e-05
    Iter = 0, relRef = 1, res = 0.00593694, resAbs = 3.52472e-05, nIters = 1, maxD = 0.00215092
    Solving
  0 KSP Residual norm < 1.e-11
    Iter = 1, relRef = 0, res = 0, resAbs = 0, nIters = 0, maxD = 0.00215092
    Converged
    Max DEpsilonPEq is 0
    0 cells (0% of the cells in this material) are actively yielding

ExecutionTime = 169.79 s  ClockTime = 180 s

Time = 16.8

Evolving solid solver
    Solving
  0 KSP Residual norm 0.00593694 
  1 KSP Residual norm < 1.e-11
    Initial residual = 3.52472e-05
    Iter = 0, relRef = 1, res = 0.00593694, resAbs = 3.52472e-05, nIters = 1, maxD = 0.00204983
    Solving
  0 KSP Residual norm < 1.e-11
    Iter = 1, relRef = 0, res = 0, resAbs = 0, nIters = 0, maxD = 0.00204983
    Converged
    Max DEpsilonPEq is 0
    0 cells (0% of the cells in this material) are actively yielding

ExecutionTime = 170.59 s  ClockTime = 181 s

Time = 17

Evolving solid solver
    Solving
  0 KSP Residual norm 0.00593694 
  1 KSP Residual norm < 1.e-11
    Initial residual = 3.52472e-05
    Iter = 0, relRef = 1, res = 0.00593694, resAbs = 3.52472e-05, nIters = 1, maxD = 0.00194873
    Solving
  0 KSP Residual norm < 1.e-11
    Iter = 1, relRef = 0, res = 0, resAbs = 0, nIters = 0, maxD = 0.00194873
    Converged
    Max DEpsilonPEq is 0
    0 cells (0% of the cells in this material) are actively yielding

Max pEpsilonEq = 0.00929573
Max epsilonEq = 0.00926719
Max sigmaEq (von Mises stress) = 1.35182e+08
ExecutionTime = 171.52 s  ClockTime = 182 s

Time = 17.2

Evolving solid solver
    Solving
  0 KSP Residual norm 0.00593694 
  1 KSP Residual norm < 1.e-11
    Initial residual = 3.52472e-05
    Iter = 0, relRef = 1, res = 0.00593694, resAbs = 3.52472e-05, nIters = 1, maxD = 0.00184763
    Solving
  0 KSP Residual norm < 1.e-11
    Iter = 1, relRef = 0, res = 0, resAbs = 0, nIters = 0, maxD = 0.00184763
    Converged
    Max DEpsilonPEq is 0
    0 cells (0% of the cells in this material) are actively yielding

ExecutionTime = 172.28 s  ClockTime = 182 s

Time = 17.4

Evolving solid solver
    Solving
  0 KSP Residual norm 0.00593694 
  1 KSP Residual norm < 1.e-11
    Initial residual = 3.52472e-05
    Iter = 0, relRef = 1, res = 0.00593694, resAbs = 3.52472e-05, nIters = 1, maxD = 0.00174653
    Solving
  0 KSP Residual norm < 1.e-11
    Iter = 1, relRef = 0, res = 0, resAbs = 0, nIters = 0, maxD = 0.00174653
    Converged
    Max DEpsilonPEq is 0
    0 cells (0% of the cells in this material) are actively yielding

ExecutionTime = 173.06 s  ClockTime = 183 s

Time = 17.6

Evolving solid solver
    Solving
  0 KSP Residual norm 0.00593694 
  1 KSP Residual norm < 1.e-11
    Initial residual = 3.52472e-05
    Iter = 0, relRef = 1, res = 0.00593694, resAbs = 3.52472e-05, nIters = 1, maxD = 0.00164543
    Solving
  0 KSP Residual norm < 1.e-11
    Iter = 1, relRef = 0, res = 0, resAbs = 0, nIters = 0, maxD = 0.00164543
    Converged
    Max DEpsilonPEq is 0
    0 cells (0% of the cells in this material) are actively yielding

ExecutionTime = 173.88 s  ClockTime = 184 s

Time = 17.8

Evolving solid solver
    Solving
  0 KSP Residual norm 0.00593694 
  1 KSP Residual norm < 1.e-11
    Initial residual = 3.52472e-05
    Iter = 0, relRef = 1, res = 0.00593694, resAbs = 3.52472e-05, nIters = 1, maxD = 0.00154433
    Solving
  0 KSP Residual norm < 1.e-11
    Iter = 1, relRef = 0, res = 0, resAbs = 0, nIters = 0, maxD = 0.00154433
    Converged
    Max DEpsilonPEq is 0
    0 cells (0% of the cells in this material) are actively yielding

ExecutionTime = 174.65 s  ClockTime = 185 s

Time = 18

Evolving solid solver
    Solving
  0 KSP Residual norm 0.00593694 
  1 KSP Residual norm < 1.e-11
    Initial residual = 3.52472e-05
    Iter = 0, relRef = 1, res = 0.00593694, resAbs = 3.52472e-05, nIters = 1, maxD = 0.00144323
    Solving
  0 KSP Residual norm < 1.e-11
    Iter = 1, relRef = 0, res = 0, resAbs = 0, nIters = 0, maxD = 0.00144323
    Converged
    Max DEpsilonPEq is 0
    0 cells (0% of the cells in this material) are actively yielding

Max pEpsilonEq = 0.00869601
Max epsilonEq = 0.00868913
Max sigmaEq (von Mises stress) = 1.83884e+08
ExecutionTime = 175.57 s  ClockTime = 186 s

Time = 18.2

Evolving solid solver
    Solving
  0 KSP Residual norm 0.00593694 
  1 KSP Residual norm < 1.e-11
    Initial residual = 3.52472e-05
    Iter = 0, relRef = 1, res = 0.00593694, resAbs = 3.52472e-05, nIters = 1, maxD = 0.00134213
    Solving
  0 KSP Residual norm < 1.e-11
    Iter = 1, relRef = 0, res = 0, resAbs = 0, nIters = 0, maxD = 0.00134213
    Converged
    Max DEpsilonPEq is 0
    0 cells (0% of the cells in this material) are actively yielding

ExecutionTime = 176.31 s  ClockTime = 187 s

Time = 18.4

Evolving solid solver
    Solving
  0 KSP Residual norm 0.00593694 
  1 KSP Residual norm < 1.e-11
    Initial residual = 3.52472e-05
    Iter = 0, relRef = 1, res = 0.00593694, resAbs = 3.52472e-05, nIters = 1, maxD = 0.00124104
    Solving
  0 KSP Residual norm < 1.e-11
    Iter = 1, relRef = 0, res = 0, resAbs = 0, nIters = 0, maxD = 0.00124104
    Converged
    Max DEpsilonPEq is 0
    0 cells (0% of the cells in this material) are actively yielding

ExecutionTime = 177.06 s  ClockTime = 187 s

Time = 18.6

Evolving solid solver
    Solving
  0 KSP Residual norm 0.00593694 
  1 KSP Residual norm < 1.e-11
    Initial residual = 3.52472e-05
    Iter = 0, relRef = 1, res = 0.00593694, resAbs = 3.52472e-05, nIters = 1, maxD = 0.00113994
    Solving
  0 KSP Residual norm < 1.e-11
    Iter = 1, relRef = 0, res = 0, resAbs = 0, nIters = 0, maxD = 0.00113994
    Converged
    Max DEpsilonPEq is 0
    0 cells (0% of the cells in this material) are actively yielding

ExecutionTime = 177.84 s  ClockTime = 188 s

Time = 18.8

Evolving solid solver
    Solving
  0 KSP Residual norm 0.00593694 
  1 KSP Residual norm < 1.e-11
    Initial residual = 3.52472e-05
    Iter = 0, relRef = 1, res = 0.00593694, resAbs = 3.52472e-05, nIters = 1, maxD = 0.00103884
    Solving
  0 KSP Residual norm < 1.e-11
    Iter = 1, relRef = 0, res = 0, resAbs = 0, nIters = 0, maxD = 0.00103884
    Converged
    Max DEpsilonPEq is 0
    0 cells (0% of the cells in this material) are actively yielding

ExecutionTime = 178.64 s  ClockTime = 189 s

Time = 19

Evolving solid solver
    Solving
  0 KSP Residual norm 0.00593694 
  1 KSP Residual norm < 1.e-11
    Initial residual = 3.52472e-05
    Iter = 0, relRef = 1, res = 0.00593694, resAbs = 3.52472e-05, nIters = 1, maxD = 0.000937739
    Solving
  0 KSP Residual norm < 1.e-11
    Iter = 1, relRef = 0, res = 0, resAbs = 0, nIters = 0, maxD = 0.000937739
    Converged
    Max DEpsilonPEq is 0
    0 cells (0% of the cells in this material) are actively yielding

Max pEpsilonEq = 0.00809972
Max epsilonEq = 0.00811373
Max sigmaEq (von Mises stress) = 2.33866e+08
ExecutionTime = 179.42 s  ClockTime = 190 s

Time = 19.2

Evolving solid solver
    Solving
  0 KSP Residual norm 0.00593694 
  1 KSP Residual norm < 1.e-11
    Initial residual = 3.52472e-05
    Iter = 0, relRef = 1, res = 0.00593694, resAbs = 3.52472e-05, nIters = 1, maxD = 0.000873549
    Solving
  0 KSP Residual norm 1.02092e-06 
  1 KSP Residual norm < 1.e-11
    Iter = 1, relRef = 2.95702e-08, res = 1.02092e-06, resAbs = 1.04227e-12, nIters = 1, maxD = 0.00087353
    Solving
  0 KSP Residual norm 6.51005e-09 
  1 KSP Residual norm < 1.e-11
    Iter = 2, relRef = 1.20239e-12, res = 6.51005e-09, resAbs = 4.23807e-17, nIters = 1, maxD = 0.00087353
    Converged
    Max DEpsilonPEq is 1.91054e-05
    1 cells (0.0125% of the cells in this material) are actively yielding

ExecutionTime = 180.48 s  ClockTime = 191 s

Time = 19.4

Evolving solid solver
    Solving
  0 KSP Residual norm 0.00593822 
  1 KSP Residual norm < 1.e-11
    Initial residual = 3.52625e-05
    Iter = 0, relRef = 1, res = 0.00593822, resAbs = 3.52625e-05, nIters = 1, maxD = 0.000833919
    Solving
  0 KSP Residual norm 1.07519e-05 
  1 KSP Residual norm < 1.e-11
    Iter = 1, relRef = 3.27837e-06, res = 1.07519e-05, resAbs = 1.15604e-10, nIters = 1, maxD = 0.000833722
    Solving
  0 KSP Residual norm 4.50108e-08 
  1 KSP Residual norm < 1.e-11
    Iter = 2, relRef = 5.74541e-11, res = 4.50108e-08, resAbs = 2.02598e-15, nIters = 1, maxD = 0.000833721
    Converged
    Max DEpsilonPEq is 0.000200657
    2 cells (0.025% of the cells in this material) are actively yielding

ExecutionTime = 181.67 s  ClockTime = 192 s

Time = 19.6

Evolving solid solver
    Solving
  0 KSP Residual norm 0.00593931 
  1 KSP Residual norm < 1.e-11
    Initial residual = 3.52754e-05
    Iter = 0, relRef = 1, res = 0.00593931, resAbs = 3.52754e-05, nIters = 1, maxD = 0.000794489
    Solving
  0 KSP Residual norm 1.83465e-05 
  1 KSP Residual norm < 1.e-11
    Iter = 1, relRef = 9.54185e-06, res = 1.83465e-05, resAbs = 3.36593e-10, nIters = 1, maxD = 0.000794136
    Solving
  0 KSP Residual norm 1.32108e-07 
  1 KSP Residual norm < 1.e-11
    Iter = 2, relRef = 4.94752e-10, res = 1.32108e-07, resAbs = 1.74526e-14, nIters = 1, maxD = 0.000794134
    Solving
  0 KSP Residual norm 4.08291e-09 
  1 KSP Residual norm < 1.e-11
    Iter = 3, relRef = 4.72571e-13, res = 4.08291e-09, resAbs = 1.66701e-17, nIters = 1, maxD = 0.000794134
    Converged
    Max DEpsilonPEq is 0.000174984
    3 cells (0.0375% of the cells in this material) are actively yielding

ExecutionTime = 183.11 s  ClockTime = 194 s

Time = 19.8

Evolving solid solver
    Solving
  0 KSP Residual norm 0.00594036 
  1 KSP Residual norm < 1.e-11
    Initial residual = 3.52878e-05
    Iter = 0, relRef = 1, res = 0.00594036, resAbs = 3.52878e-05, nIters = 1, maxD = 0.00075557
    Solving
  0 KSP Residual norm 2.58425e-05 
  1 KSP Residual norm < 1.e-11
    Iter = 1, relRef = 1.89253e-05, res = 2.58425e-05, resAbs = 6.67833e-10, nIters = 1, maxD = 0.000755037
    Solving
  0 KSP Residual norm 2.76402e-07 
  1 KSP Residual norm < 1.e-11
    Iter = 2, relRef = 2.165e-09, res = 2.76402e-07, resAbs = 7.63981e-14, nIters = 1, maxD = 0.000755031
    Solving
  0 KSP Residual norm 3.44942e-08 
  1 KSP Residual norm < 1.e-11
    Iter = 3, relRef = 3.37184e-11, res = 3.44942e-08, resAbs = 1.18985e-15, nIters = 1, maxD = 0.00075503
    Converged
    Max DEpsilonPEq is 0.000177176
    5 cells (0.0625% of the cells in this material) are actively yielding

ExecutionTime = 184.6 s  ClockTime = 196 s

Time = 20

Evolving solid solver
    Solving
  0 KSP Residual norm 0.00594261 
  1 KSP Residual norm < 1.e-11
    Initial residual = 3.53147e-05
    Iter = 0, relRef = 1, res = 0.00594261, resAbs = 3.53147e-05, nIters = 1, maxD = 0.000719705
    Solving
  0 KSP Residual norm 4.5953e-05 
  1 KSP Residual norm < 1.e-11
    Iter = 1, relRef = 5.97961e-05, res = 4.5953e-05, resAbs = 2.11168e-09, nIters = 1, maxD = 0.000718759
    Solving
  0 KSP Residual norm 4.54558e-07 
  1 KSP Residual norm < 1.e-11
    Iter = 2, relRef = 5.85091e-09, res = 4.54558e-07, resAbs = 2.06623e-13, nIters = 1, maxD = 0.000718749
    Solving
  0 KSP Residual norm 9.63184e-08 
  1 KSP Residual norm < 1.e-11
    Iter = 3, relRef = 2.62702e-10, res = 9.63184e-08, resAbs = 9.27723e-15, nIters = 1, maxD = 0.000718748
    Solving
  0 KSP Residual norm 2.92782e-09 
  1 KSP Residual norm < 1.e-11
    Iter = 4, relRef = 2.42736e-13, res = 2.92782e-09, resAbs = 8.57215e-18, nIters = 1, maxD = 0.000718748
    Converged
    Max DEpsilonPEq is 0.000206991
    8 cells (0.1% of the cells in this material) are actively yielding

Max pEpsilonEq = 0.00745398
Max epsilonEq = 0.00749868
Max sigmaEq (von Mises stress) = 2.43e+08
ExecutionTime = 186.65 s  ClockTime = 198 s

The momentum equation converged in all time-steps


End

